   Input file: bactexp1.pqi
  Output file: bactexp1.pqo
Database file: /home/drew/opt/phreeqc/database/phreeqc.dat

------------------
Reading data base.
------------------

	SOLUTION_MASTER_SPECIES
	SOLUTION_SPECIES
	PHASES
	EXCHANGE_MASTER_SPECIES
	EXCHANGE_SPECIES
	SURFACE_MASTER_SPECIES
	SURFACE_SPECIES
	RATES
	END
------------------------------------
Reading input data for simulation 1.
------------------------------------

	SURFACE_MASTER_SPECIES
	Bacta BactaO-
	Bactb BactbO-
	Bactc BactcO-
	Bactd BactdO-
	SURFACE_SPECIES
	BactaO- = BactaO-
	log_k 0
	BactbO- = BactbO-
	log_k 0
	BactcO- = BactcO-
	log_k 0
	BactdO- = BactdO-
	log_k 0
	BactaO- + H+ = BactaOH
	log_k 3.3
	BactbO- + H+ = BactbOH
	log_k 4.8
	BactcO- + H+ = BactcOH
	log_k 6.8
	BactdO- + H+ = BactdOH
	log_k 9.1
	BactaO- + Zn+2 = BactaOZn+
	log_k 3.2
	BactbO- + Zn+2 = BactbOZn+
	log_k 2.4
	BactcO- + Zn+2 = BactcOZn+
	log_k 4.2
	SOLUTION 1
	    temp      25
	    pH        7
	    pe        4
	    redox     pe
	    units     mmol/kgw
	    density   1
	    Cl        120
	    Na        120
	    Zn        0.076
	    water    1 # kg
	SURFACE 1
	    BactaO-    0.00044
	    BactbO-    0.00056
	    BactcO-    0.00022
	    BactdO-    0.00037
	    equilibrate Solution 1
	    no_edl
	PHASES 1
	fix_pH
	H+ = H+
	log_k 0
	SELECTED_OUTPUT 1
	    file                 exp1_output_1.sel
	    reset                false
	    ph                   true
	    molalities           BactaOZn+  BactbOZn+  BactcOZn+
	END
-------------------------------------------
Beginning of initial solution calculations.
-------------------------------------------

Initial solution 1.	

-----------------------------Solution composition------------------------------

	Elements           Molality       Moles

	Cl                1.200e-01   1.200e-01
	Na                1.200e-01   1.200e-01
	Zn                7.600e-05   7.600e-05

----------------------------Description of solution----------------------------

                                       pH  =   7.000    
                                       pe  =   4.000    
      Specific Conductance (µS/cm,  25°C)  = 12626
                          Density (g/cm³)  =   1.00197
                               Volume (L)  =   1.00504
                        Activity of water  =   0.996
                 Ionic strength (mol/kgw)  =   1.201e-01
                       Mass of water (kg)  =   1.000e+00
                 Total alkalinity (eq/kg)  =   1.090e-06
                         Temperature (°C)  =  25.00
                  Electrical balance (eq)  =   1.509e-04
 Percent error, 100*(Cat-|An|)/(Cat+|An|)  =   0.06
                               Iterations  =   4
                                  Total H  = 1.110124e+02
                                  Total O  = 5.550622e+01

----------------------------Distribution of species----------------------------

                                               Log       Log       Log    mole V
   Species          Molality    Activity  Molality  Activity     Gamma    cm³/mol

   OH-             1.349e-07   1.008e-07    -6.870    -6.997    -0.126     -3.68
   H+              1.223e-07   1.000e-07    -6.913    -7.000    -0.087      0.00
   H2O             5.551e+01   9.959e-01     1.744    -0.002     0.000     18.07
Cl            1.200e-01
   Cl-             1.200e-01   9.039e-02    -0.921    -1.044    -0.123     18.37
   ZnCl+           7.609e-06   5.752e-06    -5.119    -5.240    -0.121    -14.13
   ZnOHCl          6.856e-07   7.048e-07    -6.164    -6.152     0.012     (0)  
   ZnCl2           5.296e-07   5.445e-07    -6.276    -6.264     0.012    102.03
   ZnCl3-          7.303e-08   5.522e-08    -7.136    -7.258    -0.121     16.35
   ZnCl4-2         7.059e-09   2.501e-09    -8.151    -8.602    -0.451    146.74
H(0)          1.377e-25
   H2              6.886e-26   7.079e-26   -25.162   -25.150     0.012     28.61
Na            1.200e-01
   Na+             1.200e-01   9.297e-02    -0.921    -1.032    -0.111     -1.05
   NaOH            9.116e-19   9.371e-19   -18.040   -18.028     0.012     (0)  
O(0)          0.000e+00
   O2              0.000e+00   0.000e+00   -42.096   -42.084     0.012     30.40
Zn            7.600e-05
   Zn+2            6.673e-05   2.365e-05    -4.176    -4.626    -0.451    -24.63
   ZnCl+           7.609e-06   5.752e-06    -5.119    -5.240    -0.121    -14.13
   ZnOHCl          6.856e-07   7.048e-07    -6.164    -6.152     0.012     (0)  
   ZnCl2           5.296e-07   5.445e-07    -6.276    -6.264     0.012    102.03
   ZnOH+           3.349e-07   2.582e-07    -6.475    -6.588    -0.113     (0)  
   ZnCl3-          7.303e-08   5.522e-08    -7.136    -7.258    -0.121     16.35
   Zn(OH)2         2.872e-08   2.953e-08    -7.542    -7.530     0.012     (0)  
   ZnCl4-2         7.059e-09   2.501e-09    -8.151    -8.602    -0.451    146.74
   Zn(OH)3-        1.206e-12   9.299e-13   -11.919   -12.032    -0.113     (0)  
   Zn(OH)4-2       4.152e-18   1.468e-18   -17.382   -17.833    -0.452     (0)  

------------------------------Saturation indices-------------------------------

  Phase               SI** log IAP   log K(298 K,   1 atm)

  fix_pH           -7.00     -7.00    0.00  H+
  H2(g)           -22.05    -25.15   -3.10  H2
  H2O(g)           -1.50     -0.00    1.50  H2O
  Halite           -3.65     -2.08    1.57  NaCl
  O2(g)           -39.19    -42.08   -2.89  O2
  Zn(OH)2(e)       -2.13      9.37   11.50  Zn(OH)2

**For a gas, SI = log10(fugacity). Fugacity = pressure * phi / 1 atm.
  For ideal gases, phi = 1.

------------------------------------------------------
Beginning of initial surface-composition calculations.
------------------------------------------------------

Surface 1.	

Bacta         
	 -4.081e-04  Surface charge, eq
Bacta         
	  4.400e-04  moles
	                                   Mole                     Log
	Species               Moles    Fraction    Molality    Molality

	BactaO-           4.240e-04       0.964   4.240e-04      -3.373
	BactaOZn+         1.589e-05       0.036   1.589e-05      -4.799
	BactaOH           8.460e-08       0.000   8.460e-08      -7.073

Bactb         
	 -5.499e-04  Surface charge, eq
Bactb         
	  5.600e-04  moles
	                                   Mole                     Log
	Species               Moles    Fraction    Molality    Molality

	BactbO-           5.532e-04       0.988   5.532e-04      -3.257
	BactbOH           3.491e-06       0.006   3.491e-06      -5.457
	BactbOZn+         3.286e-06       0.006   3.286e-06      -5.483

Bactc         
	 -6.858e-05  Surface charge, eq
Bactc         
	  2.200e-04  moles
	                                   Mole                     Log
	Species               Moles    Fraction    Molality    Molality

	BactcO-           1.097e-04       0.499   1.097e-04      -3.960
	BactcOH           6.921e-05       0.315   6.921e-05      -4.160
	BactcOZn+         4.111e-05       0.187   4.111e-05      -4.386

Bactd         
	 -2.916e-06  Surface charge, eq
Bactd         
	  3.700e-04  moles
	                                   Mole                     Log
	Species               Moles    Fraction    Molality    Molality

	BactdOH           3.671e-04       0.992   3.671e-04      -3.435
	BactdO-           2.916e-06       0.008   2.916e-06      -5.535

-----------------------------------------
Beginning of batch-reaction calculations.
-----------------------------------------

Reaction step 1.

Using solution 1.	
Using surface 1.	

------------------------------Surface composition------------------------------

Bacta         
	 -4.081e-04  Surface charge, eq
Bacta         
	  4.400e-04  moles
	                                   Mole                     Log
	Species               Moles    Fraction    Molality    Molality

	BactaO-           4.240e-04       0.964   4.240e-04      -3.373
	BactaOZn+         1.589e-05       0.036   1.589e-05      -4.799
	BactaOH           8.460e-08       0.000   8.460e-08      -7.073

Bactb         
	 -5.499e-04  Surface charge, eq
Bactb         
	  5.600e-04  moles
	                                   Mole                     Log
	Species               Moles    Fraction    Molality    Molality

	BactbO-           5.532e-04       0.988   5.532e-04      -3.257
	BactbOH           3.491e-06       0.006   3.491e-06      -5.457
	BactbOZn+         3.286e-06       0.006   3.286e-06      -5.483

Bactc         
	 -6.858e-05  Surface charge, eq
Bactc         
	  2.200e-04  moles
	                                   Mole                     Log
	Species               Moles    Fraction    Molality    Molality

	BactcO-           1.097e-04       0.499   1.097e-04      -3.960
	BactcOH           6.921e-05       0.315   6.921e-05      -4.160
	BactcOZn+         4.111e-05       0.187   4.111e-05      -4.386

Bactd         
	 -2.916e-06  Surface charge, eq
Bactd         
	  3.700e-04  moles
	                                   Mole                     Log
	Species               Moles    Fraction    Molality    Molality

	BactdOH           3.671e-04       0.992   3.671e-04      -3.435
	BactdO-           2.916e-06       0.008   2.916e-06      -5.535

-----------------------------Solution composition------------------------------

	Elements           Molality       Moles

	Cl                1.200e-01   1.200e-01
	Na                1.200e-01   1.200e-01
	Zn                7.600e-05   7.600e-05

----------------------------Description of solution----------------------------

                                       pH  =   7.000      Charge balance
                                       pe  =   4.000      Adjusted to redox equilibrium
      Specific Conductance (µS/cm,  25°C)  = 12626
                          Density (g/cm³)  =   1.00197
                               Volume (L)  =   1.00504
                        Activity of water  =   0.996
                 Ionic strength (mol/kgw)  =   1.201e-01
                       Mass of water (kg)  =   1.000e+00
                 Total alkalinity (eq/kg)  =   1.090e-06
                         Temperature (°C)  =  25.00
                  Electrical balance (eq)  =   1.509e-04
 Percent error, 100*(Cat-|An|)/(Cat+|An|)  =   0.06
                               Iterations  =   0
                                  Total H  = 1.110124e+02
                                  Total O  = 5.550622e+01

----------------------------Distribution of species----------------------------

                                               Log       Log       Log    mole V
   Species          Molality    Activity  Molality  Activity     Gamma    cm³/mol

   OH-             1.349e-07   1.008e-07    -6.870    -6.997    -0.126     -3.68
   H+              1.223e-07   1.000e-07    -6.913    -7.000    -0.087      0.00
   H2O             5.551e+01   9.959e-01     1.744    -0.002     0.000     18.07
Cl            1.200e-01
   Cl-             1.200e-01   9.039e-02    -0.921    -1.044    -0.123     18.37
   ZnCl+           7.609e-06   5.752e-06    -5.119    -5.240    -0.121    -14.13
   ZnOHCl          6.856e-07   7.048e-07    -6.164    -6.152     0.012     (0)  
   ZnCl2           5.296e-07   5.445e-07    -6.276    -6.264     0.012    102.03
   ZnCl3-          7.303e-08   5.522e-08    -7.136    -7.258    -0.121     16.35
   ZnCl4-2         7.059e-09   2.501e-09    -8.151    -8.602    -0.451    146.74
H(0)          1.377e-25
   H2              6.886e-26   7.079e-26   -25.162   -25.150     0.012     28.61
Na            1.200e-01
   Na+             1.200e-01   9.297e-02    -0.921    -1.032    -0.111     -1.05
   NaOH            9.116e-19   9.371e-19   -18.040   -18.028     0.012     (0)  
O(0)          0.000e+00
   O2              0.000e+00   0.000e+00   -42.096   -42.084     0.012     30.40
Zn            7.600e-05
   Zn+2            6.673e-05   2.365e-05    -4.176    -4.626    -0.451    -24.63
   ZnCl+           7.609e-06   5.752e-06    -5.119    -5.240    -0.121    -14.13
   ZnOHCl          6.856e-07   7.048e-07    -6.164    -6.152     0.012     (0)  
   ZnCl2           5.296e-07   5.445e-07    -6.276    -6.264     0.012    102.03
   ZnOH+           3.349e-07   2.582e-07    -6.475    -6.588    -0.113     (0)  
   ZnCl3-          7.303e-08   5.522e-08    -7.136    -7.258    -0.121     16.35
   Zn(OH)2         2.872e-08   2.953e-08    -7.542    -7.530     0.012     (0)  
   ZnCl4-2         7.059e-09   2.501e-09    -8.151    -8.602    -0.451    146.74
   Zn(OH)3-        1.206e-12   9.299e-13   -11.919   -12.032    -0.113     (0)  
   Zn(OH)4-2       4.152e-18   1.468e-18   -17.382   -17.833    -0.452     (0)  

------------------------------Saturation indices-------------------------------

  Phase               SI** log IAP   log K(298 K,   1 atm)

  fix_pH           -7.00     -7.00    0.00  H+
  H2(g)           -22.05    -25.15   -3.10  H2
  H2O(g)           -1.50     -0.00    1.50  H2O
  Halite           -3.65     -2.08    1.57  NaCl
  O2(g)           -39.19    -42.08   -2.89  O2
  Zn(OH)2(e)       -2.13      9.37   11.50  Zn(OH)2

**For a gas, SI = log10(fugacity). Fugacity = pressure * phi / 1 atm.
  For ideal gases, phi = 1.

------------------
End of simulation.
------------------

------------------------------------
Reading input data for simulation 2.
------------------------------------

	USE SOLUTION 1
	USE SURFACE 1
	EQUILIBRIUM_PHASES 1
	CO2(g) -3.5 10
	fix_pH -4.5 HCl 10
	END
-----------------------------------------
Beginning of batch-reaction calculations.
-----------------------------------------

Reaction step 1.

Using solution 1.	
Using surface 1.	
Using pure phase assemblage 1.	

-------------------------------Phase assemblage--------------------------------

                                                      Moles in assemblage
Phase               SI  log IAP  log K(T, P)   Initial       Final       Delta

CO2(g)           -3.50    -4.97     -1.47    1.000e+01   1.000e+01  -1.067e-05
fix_pH           -4.50    -4.50      0.00
	 HCl                is reactant       1.000e+01   9.999e+00  -5.847e-04

------------------------------Surface composition------------------------------

Bacta         
	 -3.712e-04  Surface charge, eq
Bacta         
	  4.400e-04  moles
	                                   Mole                     Log
	Species               Moles    Fraction    Molality    Molality

	BactaO-           3.932e-04       0.894   3.932e-04      -3.405
	BactaOH           2.481e-05       0.056   2.481e-05      -4.605
	BactaOZn+         2.199e-05       0.050   2.199e-05      -4.658

Bactb         
	 -1.848e-04  Surface charge, eq
Bactb         
	  5.600e-04  moles
	                                   Mole                     Log
	Species               Moles    Fraction    Molality    Molality

	BactbOH           3.719e-04       0.664   3.719e-04      -3.430
	BactbO-           1.864e-04       0.333   1.864e-04      -3.730
	BactbOZn+         1.652e-06       0.003   1.652e-06      -5.782

Bactc         
	 -4.822e-07  Surface charge, eq
Bactc         
	  2.200e-04  moles
	                                   Mole                     Log
	Species               Moles    Fraction    Molality    Molality

	BactcOH           2.183e-04       0.992   2.183e-04      -3.661
	BactcO-           1.094e-06       0.005   1.094e-06      -5.961
	BactcOZn+         6.119e-07       0.003   6.119e-07      -6.213

Bactd         
	 -9.294e-09  Surface charge, eq
Bactd         
	  3.700e-04  moles
	                                   Mole                     Log
	Species               Moles    Fraction    Molality    Molality

	BactdOH           3.700e-04       1.000   3.700e-04      -3.432
	BactdO-           9.294e-09       0.000   9.294e-09      -8.032

-----------------------------Solution composition------------------------------

	Elements           Molality       Moles

	C                 1.067e-05   1.067e-05
	Cl                1.206e-01   1.206e-01
	Na                1.200e-01   1.200e-01
	Zn                1.120e-04   1.120e-04

----------------------------Description of solution----------------------------

                                       pH  =   4.500      Charge balance
                                       pe  =   0.833      Adjusted to redox equilibrium
      Specific Conductance (µS/cm,  25°C)  = 12676
                          Density (g/cm³)  =   1.00198
                               Volume (L)  =   1.00505
                        Activity of water  =   0.996
                 Ionic strength (mol/kgw)  =   1.205e-01
                       Mass of water (kg)  =   1.000e+00
                 Total alkalinity (eq/kg)  =  -3.846e-05
                       Total CO2 (mol/kg)  =   1.067e-05
                         Temperature (°C)  =  25.00
                  Electrical balance (eq)  =  -3.222e-04
 Percent error, 100*(Cat-|An|)/(Cat+|An|)  =  -0.13
                               Iterations  =  14
                                  Total H  = 1.110125e+02
                                  Total O  = 5.550624e+01

----------------------------Distribution of species----------------------------

                                               Log       Log       Log    mole V
   Species          Molality    Activity  Molality  Activity     Gamma    cm³/mol

   H+              3.867e-05   3.162e-05    -4.413    -4.500    -0.087      0.00
   OH-             4.266e-10   3.188e-10    -9.370    -9.497    -0.127     -3.68
   H2O             5.551e+01   9.959e-01     1.744    -0.002     0.000     18.07
C(-4)         5.581e-24
   CH4             5.581e-24   5.738e-24   -23.253   -23.241     0.012     35.46
C(4)          1.067e-05
   CO2             1.047e-05   1.076e-05    -4.980    -4.968     0.012     34.43
   HCO3-           1.940e-07   1.507e-07    -6.712    -6.822    -0.110     25.26
   NaHCO3          7.662e-09   7.878e-09    -8.116    -8.104     0.012      1.80
   ZnHCO3+         8.686e-10   6.696e-10    -9.061    -9.174    -0.113     (0)  
   (CO2)2          2.067e-12   2.125e-12   -11.685   -11.673     0.012     68.87
   ZnCO3           1.531e-12   1.574e-12   -11.815   -11.803     0.012     (0)  
   CO3-2           6.133e-13   2.235e-13   -12.212   -12.651    -0.438     -4.02
   NaCO3-          5.018e-13   3.869e-13   -12.299   -12.412    -0.113     -0.17
   Zn(CO3)2-2      2.129e-20   7.521e-21   -19.672   -20.124    -0.452     (0)  
Cl            1.206e-01
   Cl-             1.206e-01   9.080e-02    -0.919    -1.042    -0.123     18.37
   ZnCl+           1.141e-05   8.624e-06    -4.943    -5.064    -0.122    -14.13
   ZnCl2           7.975e-07   8.199e-07    -6.098    -6.086     0.012    102.03
   ZnCl3-          1.105e-07   8.353e-08    -6.957    -7.078    -0.122     16.35
   ZnCl4-2         1.074e-08   3.801e-09    -7.969    -8.420    -0.451    146.74
   ZnOHCl          3.250e-09   3.341e-09    -8.488    -8.476     0.012     (0)  
H(0)          2.967e-14
   H2              1.483e-14   1.525e-14   -13.829   -13.817     0.012     28.61
Na            1.200e-01
   Na+             1.200e-01   9.295e-02    -0.921    -1.032    -0.111     -1.05
   NaHCO3          7.662e-09   7.878e-09    -8.116    -8.104     0.012      1.80
   NaCO3-          5.018e-13   3.869e-13   -12.299   -12.412    -0.113     -0.17
   NaOH            2.882e-21   2.963e-21   -20.540   -20.528     0.012     (0)  
O(0)          0.000e+00
   O2              0.000e+00   0.000e+00   -64.762   -64.750     0.012     30.40
Zn            1.120e-04
   Zn+2            9.969e-05   3.529e-05    -4.001    -4.452    -0.451    -24.63
   ZnCl+           1.141e-05   8.624e-06    -4.943    -5.064    -0.122    -14.13
   ZnCl2           7.975e-07   8.199e-07    -6.098    -6.086     0.012    102.03
   ZnCl3-          1.105e-07   8.353e-08    -6.957    -7.078    -0.122     16.35
   ZnCl4-2         1.074e-08   3.801e-09    -7.969    -8.420    -0.451    146.74
   ZnOHCl          3.250e-09   3.341e-09    -8.488    -8.476     0.012     (0)  
   ZnOH+           1.581e-09   1.219e-09    -8.801    -8.914    -0.113     (0)  
   ZnHCO3+         8.686e-10   6.696e-10    -9.061    -9.174    -0.113     (0)  
   ZnCO3           1.531e-12   1.574e-12   -11.815   -11.803     0.012     (0)  
   Zn(OH)2         4.286e-13   4.406e-13   -12.368   -12.356     0.012     (0)  
   Zn(OH)3-        5.692e-20   4.388e-20   -19.245   -19.358    -0.113     (0)  
   Zn(CO3)2-2      2.129e-20   7.521e-21   -19.672   -20.124    -0.452     (0)  
   Zn(OH)4-2       6.201e-28   2.190e-28   -27.208   -27.660    -0.452     (0)  

------------------------------Saturation indices-------------------------------

  Phase               SI** log IAP   log K(298 K,   1 atm)

  CH4(g)          -20.44    -23.24   -2.80  CH4
  CO2(g)           -3.50     -4.97   -1.47  CO2	 Pressure   0.0 atm, phi 1.000
  fix_pH           -4.50     -4.50    0.00  H+
  H2(g)           -10.72    -13.82   -3.10  H2
  H2O(g)           -1.50     -0.00    1.50  H2O
  Halite           -3.64     -2.07    1.57  NaCl
  O2(g)           -61.86    -64.75   -2.89  O2
  Smithsonite      -7.10    -17.10  -10.00  ZnCO3
  Zn(OH)2(e)       -6.96      4.54   11.50  Zn(OH)2

**For a gas, SI = log10(fugacity). Fugacity = pressure * phi / 1 atm.
  For ideal gases, phi = 1.

------------------
End of simulation.
------------------

------------------------------------
Reading input data for simulation 3.
------------------------------------

	USE SOLUTION 1
	USE SURFACE 1
	EQUILIBRIUM_PHASES 1
	CO2(g) -3.5 10
	fix_pH -5.0 HCl 10
	END
-----------------------------------------
Beginning of batch-reaction calculations.
-----------------------------------------

Reaction step 1.

Using solution 1.	
Using surface 1.	
Using pure phase assemblage 1.	

-------------------------------Phase assemblage--------------------------------

                                                      Moles in assemblage
Phase               SI  log IAP  log K(T, P)   Initial       Final       Delta

CO2(g)           -3.50    -4.97     -1.47    1.000e+01   1.000e+01  -1.111e-05
fix_pH           -5.00    -5.00      0.00
	 HCl                is reactant       1.000e+01   1.000e+01  -3.812e-04

------------------------------Surface composition------------------------------

Bacta         
	 -3.872e-04  Surface charge, eq
Bacta         
	  4.400e-04  moles
	                                   Mole                     Log
	Species               Moles    Fraction    Molality    Molality

	BactaO-           4.095e-04       0.931   4.095e-04      -3.388
	BactaOZn+         2.232e-05       0.051   2.232e-05      -4.651
	BactaOH           8.171e-06       0.019   8.171e-06      -5.088

Bactb         
	 -3.386e-04  Surface charge, eq
Bactb         
	  5.600e-04  moles
	                                   Mole                     Log
	Species               Moles    Fraction    Molality    Molality

	BactbO-           3.415e-04       0.610   3.415e-04      -3.467
	BactbOH           2.155e-04       0.385   2.155e-04      -3.667
	BactbOZn+         2.951e-06       0.005   2.951e-06      -5.530

Bactc         
	 -1.548e-06  Surface charge, eq
Bactc         
	  2.200e-04  moles
	                                   Mole                     Log
	Species               Moles    Fraction    Molality    Molality

	BactcOH           2.147e-04       0.976   2.147e-04      -3.668
	BactcO-           3.403e-06       0.015   3.403e-06      -5.468
	BactcOZn+         1.855e-06       0.008   1.855e-06      -5.732

Bactd         
	 -2.939e-08  Surface charge, eq
Bactd         
	  3.700e-04  moles
	                                   Mole                     Log
	Species               Moles    Fraction    Molality    Molality

	BactdOH           3.700e-04       1.000   3.700e-04      -3.432
	BactdO-           2.939e-08       0.000   2.939e-08      -7.532

-----------------------------Solution composition------------------------------

	Elements           Molality       Moles

	C                 1.111e-05   1.111e-05
	Cl                1.204e-01   1.204e-01
	Na                1.200e-01   1.200e-01
	Zn                1.092e-04   1.092e-04

----------------------------Description of solution----------------------------

                                       pH  =   5.000      Charge balance
                                       pe  =   0.333      Adjusted to redox equilibrium
      Specific Conductance (µS/cm,  25°C)  = 12655
                          Density (g/cm³)  =   1.00198
                               Volume (L)  =   1.00505
                        Activity of water  =   0.996
                 Ionic strength (mol/kgw)  =   1.204e-01
                       Mass of water (kg)  =   1.000e+00
                 Total alkalinity (eq/kg)  =  -1.157e-05
                       Total CO2 (mol/kg)  =   1.111e-05
                         Temperature (°C)  =  25.00
                  Electrical balance (eq)  =  -1.513e-04
 Percent error, 100*(Cat-|An|)/(Cat+|An|)  =  -0.06
                               Iterations  =  14
                                  Total H  = 1.110124e+02
                                  Total O  = 5.550624e+01

----------------------------Distribution of species----------------------------

                                               Log       Log       Log    mole V
   Species          Molality    Activity  Molality  Activity     Gamma    cm³/mol

   H+              1.223e-05   1.000e-05    -4.913    -5.000    -0.087      0.00
   OH-             1.349e-09   1.008e-09    -8.870    -8.997    -0.127     -3.68
   H2O             5.551e+01   9.959e-01     1.744    -0.002     0.000     18.07
C(-4)         5.621e-24
   CH4             5.621e-24   5.779e-24   -23.250   -23.238     0.012     35.46
C(4)          1.111e-05
   CO2             1.047e-05   1.076e-05    -4.980    -4.968     0.012     34.43
   HCO3-           6.134e-07   4.766e-07    -6.212    -6.322    -0.110     25.26
   NaHCO3          2.423e-08   2.491e-08    -7.616    -7.604     0.012      1.80
   ZnHCO3+         2.677e-09   2.064e-09    -8.572    -8.685    -0.113     (0)  
   ZnCO3           1.492e-11   1.534e-11   -10.826   -10.814     0.012     (0)  
   CO3-2           6.131e-12   2.235e-12   -11.212   -11.651    -0.438     -4.03
   NaCO3-          5.018e-12   3.869e-12   -11.299   -11.412    -0.113     -0.17
   (CO2)2          2.067e-12   2.125e-12   -11.685   -11.673     0.012     68.87
   Zn(CO3)2-2      2.075e-18   7.331e-19   -17.683   -18.135    -0.452     (0)  
Cl            1.204e-01
   Cl-             1.204e-01   9.065e-02    -0.919    -1.043    -0.123     18.37
   ZnCl+           1.110e-05   8.392e-06    -4.955    -5.076    -0.122    -14.13
   ZnCl2           7.749e-07   7.966e-07    -6.111    -6.099     0.012    102.03
   ZnCl3-          1.072e-07   8.103e-08    -6.970    -7.091    -0.122     16.35
   ZnCl4-2         1.040e-08   3.682e-09    -7.983    -8.434    -0.451    146.74
   ZnOHCl          1.000e-08   1.028e-08    -8.000    -7.988     0.012     (0)  
H(0)          2.972e-14
   H2              1.486e-14   1.528e-14   -13.828   -13.816     0.012     28.61
Na            1.200e-01
   Na+             1.200e-01   9.295e-02    -0.921    -1.032    -0.111     -1.05
   NaHCO3          2.423e-08   2.491e-08    -7.616    -7.604     0.012      1.80
   NaCO3-          5.018e-12   3.869e-12   -11.299   -11.412    -0.113     -0.17
   NaOH            9.114e-21   9.370e-21   -20.040   -20.028     0.012     (0)  
O(0)          0.000e+00
   O2              0.000e+00   0.000e+00   -64.764   -64.752     0.012     30.40
Zn            1.092e-04
   Zn+2            9.714e-05   3.440e-05    -4.013    -4.464    -0.451    -24.63
   ZnCl+           1.110e-05   8.392e-06    -4.955    -5.076    -0.122    -14.13
   ZnCl2           7.749e-07   7.966e-07    -6.111    -6.099     0.012    102.03
   ZnCl3-          1.072e-07   8.103e-08    -6.970    -7.091    -0.122     16.35
   ZnCl4-2         1.040e-08   3.682e-09    -7.983    -8.434    -0.451    146.74
   ZnOHCl          1.000e-08   1.028e-08    -8.000    -7.988     0.012     (0)  
   ZnOH+           4.872e-09   3.756e-09    -8.312    -8.425    -0.113     (0)  
   ZnHCO3+         2.677e-09   2.064e-09    -8.572    -8.685    -0.113     (0)  
   ZnCO3           1.492e-11   1.534e-11   -10.826   -10.814     0.012     (0)  
   Zn(OH)2         4.177e-12   4.295e-12   -11.379   -11.367     0.012     (0)  
   Zn(CO3)2-2      2.075e-18   7.331e-19   -17.683   -18.135    -0.452     (0)  
   Zn(OH)3-        1.754e-18   1.353e-18   -17.756   -17.869    -0.113     (0)  
   Zn(OH)4-2       6.043e-26   2.135e-26   -25.219   -25.671    -0.452     (0)  

------------------------------Saturation indices-------------------------------

  Phase               SI** log IAP   log K(298 K,   1 atm)

  CH4(g)          -20.44    -23.24   -2.80  CH4
  CO2(g)           -3.50     -4.97   -1.47  CO2	 Pressure   0.0 atm, phi 1.000
  fix_pH           -5.00     -5.00    0.00  H+
  H2(g)           -10.71    -13.82   -3.10  H2
  H2O(g)           -1.50     -0.00    1.50  H2O
  Halite           -3.64     -2.07    1.57  NaCl
  O2(g)           -61.86    -64.75   -2.89  O2
  Smithsonite      -6.11    -16.11  -10.00  ZnCO3
  Zn(OH)2(e)       -5.97      5.53   11.50  Zn(OH)2

**For a gas, SI = log10(fugacity). Fugacity = pressure * phi / 1 atm.
  For ideal gases, phi = 1.

------------------
End of simulation.
------------------

------------------------------------
Reading input data for simulation 4.
------------------------------------

	USE SOLUTION 1
	USE SURFACE 1
	EQUILIBRIUM_PHASES 1
	CO2(g) -3.5 10
	fix_pH -5.5 HCl 10
	END
-----------------------------------------
Beginning of batch-reaction calculations.
-----------------------------------------

Reaction step 1.

Using solution 1.	
Using surface 1.	
Using pure phase assemblage 1.	

-------------------------------Phase assemblage--------------------------------

                                                      Moles in assemblage
Phase               SI  log IAP  log K(T, P)   Initial       Final       Delta

CO2(g)           -3.50    -4.97     -1.47    1.000e+01   1.000e+01  -1.249e-05
fix_pH           -5.50    -5.50      0.00
	 HCl                is reactant       1.000e+01   1.000e+01  -2.324e-04

------------------------------Surface composition------------------------------

Bacta         
	 -3.937e-04  Surface charge, eq
Bacta         
	  4.400e-04  moles
	                                   Mole                     Log
	Species               Moles    Fraction    Molality    Molality

	BactaO-           4.155e-04       0.944   4.155e-04      -3.381
	BactaOZn+         2.183e-05       0.050   2.183e-05      -4.661
	BactaOH           2.622e-06       0.006   2.622e-06      -5.581

Bactb         
	 -4.598e-04  Surface charge, eq
Bactb         
	  5.600e-04  moles
	                                   Mole                     Log
	Species               Moles    Fraction    Molality    Molality

	BactbO-           4.636e-04       0.828   4.636e-04      -3.334
	BactbOH           9.251e-05       0.165   9.251e-05      -4.034
	BactbOZn+         3.861e-06       0.007   3.861e-06      -5.413

Bactc         
	 -4.861e-06  Surface charge, eq
Bactc         
	  2.200e-04  moles
	                                   Mole                     Log
	Species               Moles    Fraction    Molality    Molality

	BactcOH           2.044e-04       0.929   2.044e-04      -3.690
	BactcO-           1.024e-05       0.047   1.024e-05      -4.990
	BactcOZn+         5.382e-06       0.024   5.382e-06      -5.269

Bactd         
	 -9.292e-08  Surface charge, eq
Bactd         
	  3.700e-04  moles
	                                   Mole                     Log
	Species               Moles    Fraction    Molality    Molality

	BactdOH           3.699e-04       1.000   3.699e-04      -3.432
	BactdO-           9.292e-08       0.000   9.292e-08      -7.032

-----------------------------Solution composition------------------------------

	Elements           Molality       Moles

	C                 1.249e-05   1.249e-05
	Cl                1.202e-01   1.202e-01
	Na                1.200e-01   1.200e-01
	Zn                1.052e-04   1.052e-04

----------------------------Description of solution----------------------------

                                       pH  =   5.500      Charge balance
                                       pe  =  -0.167      Adjusted to redox equilibrium
      Specific Conductance (µS/cm,  25°C)  = 12643
                          Density (g/cm³)  =   1.00197
                               Volume (L)  =   1.00505
                        Activity of water  =   0.996
                 Ionic strength (mol/kgw)  =   1.203e-01
                       Mass of water (kg)  =   1.000e+00
                 Total alkalinity (eq/kg)  =  -1.792e-06
                       Total CO2 (mol/kg)  =   1.249e-05
                         Temperature (°C)  =  25.00
                  Electrical balance (eq)  =  -2.022e-05
 Percent error, 100*(Cat-|An|)/(Cat+|An|)  =  -0.01
                               Iterations  =  13
                                  Total H  = 1.110124e+02
                                  Total O  = 5.550624e+01

----------------------------Distribution of species----------------------------

                                               Log       Log       Log    mole V
   Species          Molality    Activity  Molality  Activity     Gamma    cm³/mol

   H+              3.867e-06   3.162e-06    -5.413    -5.500    -0.087      0.00
   OH-             4.265e-09   3.188e-09    -8.370    -8.497    -0.126     -3.68
   H2O             5.551e+01   9.959e-01     1.744    -0.002     0.000     18.07
C(-4)         5.621e-24
   CH4             5.621e-24   5.779e-24   -23.250   -23.238     0.012     35.46
C(4)          1.249e-05
   CO2             1.047e-05   1.076e-05    -4.980    -4.968     0.012     34.43
   HCO3-           1.940e-06   1.507e-06    -5.712    -5.822    -0.110     25.26
   NaHCO3          7.664e-08   7.879e-08    -7.116    -7.104     0.012      1.80
   ZnHCO3+         8.159e-09   6.291e-09    -8.088    -8.201    -0.113     (0)  
   ZnCO3           1.438e-10   1.479e-10    -9.842    -9.830     0.012     (0)  
   CO3-2           6.129e-11   2.235e-11   -10.213   -10.651    -0.438     -4.03
   NaCO3-          5.018e-11   3.869e-11   -10.299   -10.412    -0.113     -0.17
   (CO2)2          2.067e-12   2.125e-12   -11.685   -11.673     0.012     68.87
   Zn(CO3)2-2      2.000e-16   7.066e-17   -15.699   -16.151    -0.452     (0)  
Cl            1.202e-01
   Cl-             1.202e-01   9.055e-02    -0.920    -1.043    -0.123     18.37
   ZnCl+           1.069e-05   8.079e-06    -4.971    -5.093    -0.122    -14.13
   ZnCl2           7.451e-07   7.661e-07    -6.128    -6.116     0.012    102.03
   ZnCl3-          1.030e-07   7.783e-08    -6.987    -7.109    -0.122     16.35
   ZnOHCl          3.045e-08   3.130e-08    -7.516    -7.504     0.012     (0)  
   ZnCl4-2         9.973e-09   3.532e-09    -8.001    -8.452    -0.451    146.74
H(0)          2.972e-14
   H2              1.486e-14   1.528e-14   -13.828   -13.816     0.012     28.61
Na            1.200e-01
   Na+             1.200e-01   9.296e-02    -0.921    -1.032    -0.111     -1.05
   NaHCO3          7.664e-08   7.879e-08    -7.116    -7.104     0.012      1.80
   NaCO3-          5.018e-11   3.869e-11   -10.299   -10.412    -0.113     -0.17
   NaOH            2.882e-20   2.963e-20   -19.540   -19.528     0.012     (0)  
O(0)          0.000e+00
   O2              0.000e+00   0.000e+00   -64.764   -64.752     0.012     30.40
Zn            1.052e-04
   Zn+2            9.361e-05   3.315e-05    -4.029    -4.479    -0.451    -24.63
   ZnCl+           1.069e-05   8.079e-06    -4.971    -5.093    -0.122    -14.13
   ZnCl2           7.451e-07   7.661e-07    -6.128    -6.116     0.012    102.03
   ZnCl3-          1.030e-07   7.783e-08    -6.987    -7.109    -0.122     16.35
   ZnOHCl          3.045e-08   3.130e-08    -7.516    -7.504     0.012     (0)  
   ZnOH+           1.485e-08   1.145e-08    -7.828    -7.941    -0.113     (0)  
   ZnCl4-2         9.973e-09   3.532e-09    -8.001    -8.452    -0.451    146.74
   ZnHCO3+         8.159e-09   6.291e-09    -8.088    -8.201    -0.113     (0)  
   ZnCO3           1.438e-10   1.479e-10    -9.842    -9.830     0.012     (0)  
   Zn(OH)2         4.026e-11   4.140e-11   -10.395   -10.383     0.012     (0)  
   Zn(CO3)2-2      2.000e-16   7.066e-17   -15.699   -16.151    -0.452     (0)  
   Zn(OH)3-        5.347e-17   4.123e-17   -16.272   -16.385    -0.113     (0)  
   Zn(OH)4-2       5.823e-24   2.058e-24   -23.235   -23.687    -0.452     (0)  

------------------------------Saturation indices-------------------------------

  Phase               SI** log IAP   log K(298 K,   1 atm)

  CH4(g)          -20.44    -23.24   -2.80  CH4
  CO2(g)           -3.50     -4.97   -1.47  CO2	 Pressure   0.0 atm, phi 1.000
  fix_pH           -5.50     -5.50    0.00  H+
  H2(g)           -10.71    -13.82   -3.10  H2
  H2O(g)           -1.50     -0.00    1.50  H2O
  Halite           -3.64     -2.07    1.57  NaCl
  O2(g)           -61.86    -64.75   -2.89  O2
  Smithsonite      -5.13    -15.13  -10.00  ZnCO3
  Zn(OH)2(e)       -4.98      6.52   11.50  Zn(OH)2

**For a gas, SI = log10(fugacity). Fugacity = pressure * phi / 1 atm.
  For ideal gases, phi = 1.

------------------
End of simulation.
------------------

------------------------------------
Reading input data for simulation 5.
------------------------------------

	USE SOLUTION 1
	USE SURFACE 1
	EQUILIBRIUM_PHASES 1
	CO2(g) -3.5 10
	fix_pH -6.0 NaOH 10
	END
-----------------------------------------
Beginning of batch-reaction calculations.
-----------------------------------------

Reaction step 1.

Using solution 1.	
Using surface 1.	
Using pure phase assemblage 1.	

-------------------------------Phase assemblage--------------------------------

                                                      Moles in assemblage
Phase               SI  log IAP  log K(T, P)   Initial       Final       Delta

CO2(g)           -3.50    -4.97     -1.47    1.000e+01   1.000e+01  -1.687e-05
fix_pH           -6.00    -6.00      0.00
	 NaOH               is reactant       1.000e+01   1.000e+01   1.374e-04

------------------------------Surface composition------------------------------

Bacta         
	 -3.982e-04  Surface charge, eq
Bacta         
	  4.400e-04  moles
	                                   Mole                     Log
	Species               Moles    Fraction    Molality    Molality

	BactaO-           4.187e-04       0.952   4.187e-04      -3.378
	BactaOZn+         2.048e-05       0.047   2.048e-05      -4.689
	BactaOH           8.354e-07       0.002   8.354e-07      -6.078

Bactb         
	 -5.189e-04  Surface charge, eq
Bactb         
	  5.600e-04  moles
	                                   Mole                     Log
	Species               Moles    Fraction    Molality    Molality

	BactbO-           5.230e-04       0.934   5.230e-04      -3.282
	BactbOH           3.300e-05       0.059   3.300e-05      -4.482
	BactbOZn+         4.053e-06       0.007   4.053e-06      -5.392

Bactc         
	 -1.441e-05  Surface charge, eq
Bactc         
	  2.200e-04  moles
	                                   Mole                     Log
	Species               Moles    Fraction    Molality    Molality

	BactcOH           1.780e-04       0.809   1.780e-04      -3.750
	BactcO-           2.821e-05       0.128   2.821e-05      -4.550
	BactcOZn+         1.380e-05       0.063   1.380e-05      -4.860

Bactd         
	 -2.937e-07  Surface charge, eq
Bactd         
	  3.700e-04  moles
	                                   Mole                     Log
	Species               Moles    Fraction    Molality    Molality

	BactdOH           3.697e-04       0.999   3.697e-04      -3.432
	BactdO-           2.937e-07       0.001   2.937e-07      -6.532

-----------------------------Solution composition------------------------------

	Elements           Molality       Moles

	C                 1.687e-05   1.687e-05
	Cl                1.200e-01   1.200e-01
	Na                1.199e-01   1.199e-01
	Zn                9.796e-05   9.796e-05

----------------------------Description of solution----------------------------

                                       pH  =   6.000      Charge balance
                                       pe  =  -0.667      Adjusted to redox equilibrium
      Specific Conductance (µS/cm,  25°C)  = 12623
                          Density (g/cm³)  =   1.00197
                               Volume (L)  =   1.00504
                        Activity of water  =   0.996
                 Ionic strength (mol/kgw)  =   1.201e-01
                       Mass of water (kg)  =   1.000e+00
                 Total alkalinity (eq/kg)  =   5.329e-06
                       Total CO2 (mol/kg)  =   1.687e-05
                         Temperature (°C)  =  25.00
                  Electrical balance (eq)  =   5.316e-05
 Percent error, 100*(Cat-|An|)/(Cat+|An|)  =   0.02
                               Iterations  =  12
                                  Total H  = 1.110122e+02
                                  Total O  = 5.550611e+01

----------------------------Distribution of species----------------------------

                                               Log       Log       Log    mole V
   Species          Molality    Activity  Molality  Activity     Gamma    cm³/mol

   H+              1.223e-06   1.000e-06    -5.913    -6.000    -0.087      0.00
   OH-             1.349e-08   1.008e-08    -7.870    -7.997    -0.126     -3.68
   H2O             5.551e+01   9.959e-01     1.744    -0.002     0.000     18.07
C(-4)         5.586e-24
   CH4             5.586e-24   5.743e-24   -23.253   -23.241     0.012     35.46
C(4)          1.687e-05
   CO2             1.047e-05   1.076e-05    -4.980    -4.968     0.012     34.43
   HCO3-           6.133e-06   4.766e-06    -5.212    -5.322    -0.109     25.25
   NaHCO3          2.421e-07   2.489e-07    -6.616    -6.604     0.012      1.80
   ZnHCO3+         2.401e-08   1.852e-08    -7.620    -7.732    -0.113     (0)  
   ZnCO3           1.339e-09   1.376e-09    -8.873    -8.861     0.012     (0)  
   CO3-2           6.126e-10   2.235e-10    -9.213    -9.651    -0.438     -4.03
   NaCO3-          5.013e-10   3.865e-10    -9.300    -9.413    -0.113     -0.17
   (CO2)2          2.067e-12   2.125e-12   -11.685   -11.673     0.012     68.87
   Zn(CO3)2-2      1.860e-14   6.577e-15   -13.730   -14.182    -0.452     (0)  
Cl            1.200e-01
   Cl-             1.200e-01   9.039e-02    -0.921    -1.044    -0.123     18.37
   ZnCl+           9.929e-06   7.507e-06    -5.003    -5.125    -0.121    -14.13
   ZnCl2           6.911e-07   7.105e-07    -6.160    -6.148     0.012    102.03
   ZnCl3-          9.530e-08   7.205e-08    -7.021    -7.142    -0.121     16.35
   ZnOHCl          8.947e-08   9.197e-08    -7.048    -7.036     0.012     (0)  
   ZnCl4-2         9.212e-09   3.264e-09    -8.036    -8.486    -0.451    146.74
H(0)          2.967e-14
   H2              1.484e-14   1.525e-14   -13.829   -13.817     0.012     28.61
Na            1.199e-01
   Na+             1.199e-01   9.286e-02    -0.921    -1.032    -0.111     -1.05
   NaHCO3          2.421e-07   2.489e-07    -6.616    -6.604     0.012      1.80
   NaCO3-          5.013e-10   3.865e-10    -9.300    -9.413    -0.113     -0.17
   NaOH            9.105e-20   9.361e-20   -19.041   -19.029     0.012     (0)  
O(0)          0.000e+00
   O2              0.000e+00   0.000e+00   -64.762   -64.750     0.012     30.40
Zn            9.796e-05
   Zn+2            8.708e-05   3.086e-05    -4.060    -4.511    -0.451    -24.63
   ZnCl+           9.929e-06   7.507e-06    -5.003    -5.125    -0.121    -14.13
   ZnCl2           6.911e-07   7.105e-07    -6.160    -6.148     0.012    102.03
   ZnCl3-          9.530e-08   7.205e-08    -7.021    -7.142    -0.121     16.35
   ZnOHCl          8.947e-08   9.197e-08    -7.048    -7.036     0.012     (0)  
   ZnOH+           4.370e-08   3.369e-08    -7.360    -7.472    -0.113     (0)  
   ZnHCO3+         2.401e-08   1.852e-08    -7.620    -7.732    -0.113     (0)  
   ZnCl4-2         9.212e-09   3.264e-09    -8.036    -8.486    -0.451    146.74
   ZnCO3           1.339e-09   1.376e-09    -8.873    -8.861     0.012     (0)  
   Zn(OH)2         3.748e-10   3.853e-10    -9.426    -9.414     0.012     (0)  
   Zn(CO3)2-2      1.860e-14   6.577e-15   -13.730   -14.182    -0.452     (0)  
   Zn(OH)3-        1.574e-15   1.213e-15   -14.803   -14.916    -0.113     (0)  
   Zn(OH)4-2       5.417e-22   1.915e-22   -21.266   -21.718    -0.452     (0)  

------------------------------Saturation indices-------------------------------

  Phase               SI** log IAP   log K(298 K,   1 atm)

  CH4(g)          -20.44    -23.24   -2.80  CH4
  CO2(g)           -3.50     -4.97   -1.47  CO2	 Pressure   0.0 atm, phi 1.000
  fix_pH           -6.00     -6.00    0.00  H+
  H2(g)           -10.72    -13.82   -3.10  H2
  H2O(g)           -1.50     -0.00    1.50  H2O
  Halite           -3.65     -2.08    1.57  NaCl
  O2(g)           -61.86    -64.75   -2.89  O2
  Smithsonite      -4.16    -14.16  -10.00  ZnCO3
  Zn(OH)2(e)       -4.01      7.49   11.50  Zn(OH)2

**For a gas, SI = log10(fugacity). Fugacity = pressure * phi / 1 atm.
  For ideal gases, phi = 1.

------------------
End of simulation.
------------------

------------------------------------
Reading input data for simulation 6.
------------------------------------

	USE SOLUTION 1
	USE SURFACE 1
	EQUILIBRIUM_PHASES 1
	CO2(g) -3.5 10
	fix_pH -6.5 NaOH 10
	END
-----------------------------------------
Beginning of batch-reaction calculations.
-----------------------------------------

Reaction step 1.

Using solution 1.	
Using surface 1.	
Using pure phase assemblage 1.	

-------------------------------Phase assemblage--------------------------------

                                                      Moles in assemblage
Phase               SI  log IAP  log K(T, P)   Initial       Final       Delta

CO2(g)           -3.50    -4.97     -1.47    1.000e+01   1.000e+01  -3.072e-05
fix_pH           -6.50    -6.50      0.00
	 NaOH               is reactant       1.000e+01   1.000e+01   4.925e-05

------------------------------Surface composition------------------------------

Bacta         
	 -4.034e-04  Surface charge, eq
Bacta         
	  4.400e-04  moles
	                                   Mole                     Log
	Species               Moles    Fraction    Molality    Molality

	BactaO-           4.216e-04       0.958   4.216e-04      -3.375
	BactaOZn+         1.818e-05       0.041   1.818e-05      -4.740
	BactaOH           2.660e-07       0.001   2.660e-07      -6.575

Bactb         
	 -5.417e-04  Surface charge, eq
Bactb         
	  5.600e-04  moles
	                                   Mole                     Log
	Species               Moles    Fraction    Molality    Molality

	BactbO-           5.454e-04       0.974   5.454e-04      -3.263
	BactbOH           1.088e-05       0.019   1.088e-05      -4.963
	BactbOZn+         3.727e-06       0.007   3.727e-06      -5.429

Bactc         
	 -3.652e-05  Surface charge, eq
Bactc         
	  2.200e-04  moles
	                                   Mole                     Log
	Species               Moles    Fraction    Molality    Molality

	BactcOH           1.281e-04       0.582   1.281e-04      -3.892
	BactcO-           6.421e-05       0.292   6.421e-05      -4.192
	BactcOZn+         2.769e-05       0.126   2.769e-05      -4.558

Bactd         
	 -9.271e-07  Surface charge, eq
Bactd         
	  3.700e-04  moles
	                                   Mole                     Log
	Species               Moles    Fraction    Molality    Molality

	BactdOH           3.691e-04       0.997   3.691e-04      -3.433
	BactdO-           9.271e-07       0.003   9.271e-07      -6.033

-----------------------------Solution composition------------------------------

	Elements           Molality       Moles

	C                 3.072e-05   3.072e-05
	Cl                1.200e-01   1.200e-01
	Na                1.200e-01   1.200e-01
	Zn                8.669e-05   8.669e-05

----------------------------Description of solution----------------------------

                                       pH  =   6.500      Charge balance
                                       pe  =  -1.167      Adjusted to redox equilibrium
      Specific Conductance (µS/cm,  25°C)  = 12626
                          Density (g/cm³)  =   1.00197
                               Volume (L)  =   1.00504
                        Activity of water  =   0.996
                 Ionic strength (mol/kgw)  =   1.201e-01
                       Mass of water (kg)  =   1.000e+00
                 Total alkalinity (eq/kg)  =   2.031e-05
                       Total CO2 (mol/kg)  =   3.072e-05
                         Temperature (°C)  =  25.00
                  Electrical balance (eq)  =   1.038e-04
 Percent error, 100*(Cat-|An|)/(Cat+|An|)  =   0.04
                               Iterations  =  12
                                  Total H  = 1.110123e+02
                                  Total O  = 5.550623e+01

----------------------------Distribution of species----------------------------

                                               Log       Log       Log    mole V
   Species          Molality    Activity  Molality  Activity     Gamma    cm³/mol

   H+              3.866e-07   3.162e-07    -6.413    -6.500    -0.087      0.00
   OH-             4.265e-08   3.188e-08    -7.370    -7.497    -0.126     -3.68
   H2O             5.551e+01   9.959e-01     1.744    -0.002     0.000     18.07
C(-4)         5.576e-24
   CH4             5.576e-24   5.732e-24   -23.254   -23.242     0.012     35.46
C(4)          3.072e-05
   HCO3-           1.939e-05   1.507e-05    -4.712    -4.822    -0.109     25.26
   CO2             1.047e-05   1.076e-05    -4.980    -4.968     0.012     34.43
   NaHCO3          7.662e-07   7.877e-07    -6.116    -6.104     0.012      1.80
   ZnHCO3+         6.695e-08   5.163e-08    -7.174    -7.287    -0.113     (0)  
   ZnCO3           1.180e-08   1.213e-08    -7.928    -7.916     0.012     (0)  
   CO3-2           6.127e-09   2.235e-09    -8.213    -8.651    -0.438     -4.03
   NaCO3-          5.016e-09   3.868e-09    -8.300    -8.413    -0.113     -0.17
   (CO2)2          2.067e-12   2.125e-12   -11.685   -11.673     0.012     68.87
   Zn(CO3)2-2      1.640e-12   5.799e-13   -11.785   -12.237    -0.452     (0)  
Cl            1.200e-01
   Cl-             1.200e-01   9.039e-02    -0.921    -1.044    -0.123     18.37
   ZnCl+           8.755e-06   6.619e-06    -5.058    -5.179    -0.121    -14.13
   ZnCl2           6.093e-07   6.264e-07    -6.215    -6.203     0.012    102.03
   ZnOHCl          2.494e-07   2.564e-07    -6.603    -6.591     0.012     (0)  
   ZnCl3-          8.403e-08   6.353e-08    -7.076    -7.197    -0.121     16.35
   ZnCl4-2         8.122e-09   2.878e-09    -8.090    -8.541    -0.451    146.74
H(0)          2.966e-14
   H2              1.483e-14   1.525e-14   -13.829   -13.817     0.012     28.61
Na            1.200e-01
   Na+             1.200e-01   9.293e-02    -0.921    -1.032    -0.111     -1.05
   NaHCO3          7.662e-07   7.877e-07    -6.116    -6.104     0.012      1.80
   NaCO3-          5.016e-09   3.868e-09    -8.300    -8.413    -0.113     -0.17
   NaOH            2.881e-19   2.962e-19   -18.540   -18.528     0.012     (0)  
O(0)          0.000e+00
   O2              0.000e+00   0.000e+00   -64.762   -64.750     0.012     30.40
Zn            8.669e-05
   Zn+2            7.678e-05   2.721e-05    -4.115    -4.565    -0.451    -24.63
   ZnCl+           8.755e-06   6.619e-06    -5.058    -5.179    -0.121    -14.13
   ZnCl2           6.093e-07   6.264e-07    -6.215    -6.203     0.012    102.03
   ZnOHCl          2.494e-07   2.564e-07    -6.603    -6.591     0.012     (0)  
   ZnOH+           1.218e-07   9.395e-08    -6.914    -7.027    -0.113     (0)  
   ZnCl3-          8.403e-08   6.353e-08    -7.076    -7.197    -0.121     16.35
   ZnHCO3+         6.695e-08   5.163e-08    -7.174    -7.287    -0.113     (0)  
   ZnCO3           1.180e-08   1.213e-08    -7.928    -7.916     0.012     (0)  
   ZnCl4-2         8.122e-09   2.878e-09    -8.090    -8.541    -0.451    146.74
   Zn(OH)2         3.304e-09   3.397e-09    -8.481    -8.469     0.012     (0)  
   Zn(CO3)2-2      1.640e-12   5.799e-13   -11.785   -12.237    -0.452     (0)  
   Zn(OH)3-        4.388e-14   3.383e-14   -13.358   -13.471    -0.113     (0)  
   Zn(OH)4-2       4.777e-20   1.689e-20   -19.321   -19.772    -0.452     (0)  

------------------------------Saturation indices-------------------------------

  Phase               SI** log IAP   log K(298 K,   1 atm)

  CH4(g)          -20.44    -23.24   -2.80  CH4
  CO2(g)           -3.50     -4.97   -1.47  CO2	 Pressure   0.0 atm, phi 1.000
  fix_pH           -6.50     -6.50    0.00  H+
  H2(g)           -10.72    -13.82   -3.10  H2
  H2O(g)           -1.50     -0.00    1.50  H2O
  Halite           -3.65     -2.08    1.57  NaCl
  O2(g)           -61.86    -64.75   -2.89  O2
  Smithsonite      -3.22    -13.22  -10.00  ZnCO3
  Zn(OH)2(e)       -3.07      8.43   11.50  Zn(OH)2

**For a gas, SI = log10(fugacity). Fugacity = pressure * phi / 1 atm.
  For ideal gases, phi = 1.

------------------
End of simulation.
------------------

------------------------------------
Reading input data for simulation 7.
------------------------------------

	USE SOLUTION 1
	USE SURFACE 1
	EQUILIBRIUM_PHASES 1
	CO2(g) -3.5 10
	fix_pH -7.0 NaOH 10
	END
-----------------------------------------
Beginning of batch-reaction calculations.
-----------------------------------------

Reaction step 1.

Using solution 1.	
Using surface 1.	
Using pure phase assemblage 1.	

-------------------------------Phase assemblage--------------------------------

                                                      Moles in assemblage
Phase               SI  log IAP  log K(T, P)   Initial       Final       Delta

CO2(g)           -3.50    -4.97     -1.47    1.000e+01   1.000e+01  -7.462e-05
fix_pH           -7.00    -7.00      0.00
	 NaOH               is reactant       1.000e+01   1.000e+01  -6.434e-05

------------------------------Surface composition------------------------------

Bacta         
	 -4.082e-04  Surface charge, eq
Bacta         
	  4.400e-04  moles
	                                   Mole                     Log
	Species               Moles    Fraction    Molality    Molality

	BactaO-           4.241e-04       0.964   4.241e-04      -3.373
	BactaOZn+         1.585e-05       0.036   1.585e-05      -4.800
	BactaOH           8.461e-08       0.000   8.461e-08      -7.073

Bactb         
	 -5.500e-04  Surface charge, eq
Bactb         
	  5.600e-04  moles
	                                   Mole                     Log
	Species               Moles    Fraction    Molality    Molality

	BactbO-           5.532e-04       0.988   5.532e-04      -3.257
	BactbOH           3.491e-06       0.006   3.491e-06      -5.457
	BactbOZn+         3.278e-06       0.006   3.278e-06      -5.484

Bactc         
	 -6.871e-05  Surface charge, eq
Bactc         
	  2.200e-04  moles
	                                   Mole                     Log
	Species               Moles    Fraction    Molality    Molality

	BactcO-           1.097e-04       0.499   1.097e-04      -3.960
	BactcOH           6.924e-05       0.315   6.924e-05      -4.160
	BactcOZn+         4.103e-05       0.186   4.103e-05      -4.387

Bactd         
	 -2.916e-06  Surface charge, eq
Bactd         
	  3.700e-04  moles
	                                   Mole                     Log
	Species               Moles    Fraction    Molality    Molality

	BactdOH           3.671e-04       0.992   3.671e-04      -3.435
	BactdO-           2.916e-06       0.008   2.916e-06      -5.535

-----------------------------Solution composition------------------------------

	Elements           Molality       Moles

	C                 7.462e-05   7.462e-05
	Cl                1.200e-01   1.200e-01
	Na                1.201e-01   1.201e-01
	Zn                7.612e-05   7.612e-05

----------------------------Description of solution----------------------------

                                       pH  =   7.000      Charge balance
                                       pe  =  -1.667      Adjusted to redox equilibrium
      Specific Conductance (µS/cm,  25°C)  = 12631
                          Density (g/cm³)  =   1.00197
                               Volume (L)  =   1.00504
                        Activity of water  =   0.996
                 Ionic strength (mol/kgw)  =   1.202e-01
                       Mass of water (kg)  =   1.000e+00
                 Total alkalinity (eq/kg)  =   6.546e-05
                       Total CO2 (mol/kg)  =   7.462e-05
                         Temperature (°C)  =  25.00
                  Electrical balance (eq)  =   1.511e-04
 Percent error, 100*(Cat-|An|)/(Cat+|An|)  =   0.06
                               Iterations  =  12
                                  Total H  = 1.110125e+02
                                  Total O  = 5.550643e+01

----------------------------Distribution of species----------------------------

                                               Log       Log       Log    mole V
   Species          Molality    Activity  Molality  Activity     Gamma    cm³/mol

   OH-             1.349e-07   1.008e-07    -6.870    -6.997    -0.126     -3.68
   H+              1.223e-07   1.000e-07    -6.913    -7.000    -0.087      0.00
   H2O             5.551e+01   9.959e-01     1.744    -0.002     0.000     18.07
C(-4)         5.601e-24
   CH4             5.601e-24   5.758e-24   -23.252   -23.240     0.012     35.46
C(4)          7.462e-05
   HCO3-           6.133e-05   4.766e-05    -4.212    -4.322    -0.109     25.26
   CO2             1.047e-05   1.076e-05    -4.980    -4.968     0.012     34.43
   NaHCO3          2.425e-06   2.493e-06    -5.615    -5.603     0.012      1.80
   ZnHCO3+         1.836e-07   1.416e-07    -6.736    -6.849    -0.113     (0)  
   ZnCO3           1.023e-07   1.052e-07    -6.990    -6.978     0.012     (0)  
   CO3-2           6.128e-08   2.235e-08    -7.213    -7.651    -0.438     -4.03
   NaCO3-          5.021e-08   3.871e-08    -7.299    -7.412    -0.113     -0.17
   Zn(CO3)2-2      1.422e-10   5.028e-11    -9.847   -10.299    -0.452     (0)  
   (CO2)2          2.067e-12   2.125e-12   -11.685   -11.673     0.012     68.87
Cl            1.200e-01
   Cl-             1.200e-01   9.038e-02    -0.921    -1.044    -0.123     18.37
   ZnCl+           7.591e-06   5.739e-06    -5.120    -5.241    -0.121    -14.13
   ZnOHCl          6.840e-07   7.031e-07    -6.165    -6.153     0.012     (0)  
   ZnCl2           5.283e-07   5.431e-07    -6.277    -6.265     0.012    102.03
   ZnCl3-          7.286e-08   5.508e-08    -7.138    -7.259    -0.121     16.35
   ZnCl4-2         7.043e-09   2.495e-09    -8.152    -8.603    -0.451    146.74
H(0)          2.969e-14
   H2              1.485e-14   1.526e-14   -13.828   -13.816     0.012     28.61
Na            1.201e-01
   Na+             1.201e-01   9.301e-02    -0.921    -1.031    -0.111     -1.05
   NaHCO3          2.425e-06   2.493e-06    -5.615    -5.603     0.012      1.80
   NaCO3-          5.021e-08   3.871e-08    -7.299    -7.412    -0.113     -0.17
   NaOH            9.120e-19   9.376e-19   -18.040   -18.028     0.012     (0)  
O(0)          0.000e+00
   O2              0.000e+00   0.000e+00   -64.763   -64.751     0.012     30.40
Zn            7.612e-05
   Zn+2            6.659e-05   2.359e-05    -4.177    -4.627    -0.451    -24.63
   ZnCl+           7.591e-06   5.739e-06    -5.120    -5.241    -0.121    -14.13
   ZnOHCl          6.840e-07   7.031e-07    -6.165    -6.153     0.012     (0)  
   ZnCl2           5.283e-07   5.431e-07    -6.277    -6.265     0.012    102.03
   ZnOH+           3.341e-07   2.576e-07    -6.476    -6.589    -0.113     (0)  
   ZnHCO3+         1.836e-07   1.416e-07    -6.736    -6.849    -0.113     (0)  
   ZnCO3           1.023e-07   1.052e-07    -6.990    -6.978     0.012     (0)  
   ZnCl3-          7.286e-08   5.508e-08    -7.138    -7.259    -0.121     16.35
   Zn(OH)2         2.865e-08   2.946e-08    -7.543    -7.531     0.012     (0)  
   ZnCl4-2         7.043e-09   2.495e-09    -8.152    -8.603    -0.451    146.74
   Zn(CO3)2-2      1.422e-10   5.028e-11    -9.847   -10.299    -0.452     (0)  
   Zn(OH)3-        1.203e-12   9.277e-13   -11.920   -12.033    -0.113     (0)  
   Zn(OH)4-2       4.143e-18   1.464e-18   -17.383   -17.834    -0.452     (0)  

------------------------------Saturation indices-------------------------------

  Phase               SI** log IAP   log K(298 K,   1 atm)

  CH4(g)          -20.44    -23.24   -2.80  CH4
  CO2(g)           -3.50     -4.97   -1.47  CO2	 Pressure   0.0 atm, phi 1.000
  fix_pH           -7.00     -7.00    0.00  H+
  H2(g)           -10.72    -13.82   -3.10  H2
  H2O(g)           -1.50     -0.00    1.50  H2O
  Halite           -3.65     -2.08    1.57  NaCl
  O2(g)           -61.86    -64.75   -2.89  O2
  Smithsonite      -2.28    -12.28  -10.00  ZnCO3
  Zn(OH)2(e)       -2.13      9.37   11.50  Zn(OH)2

**For a gas, SI = log10(fugacity). Fugacity = pressure * phi / 1 atm.
  For ideal gases, phi = 1.

------------------
End of simulation.
------------------

------------------------------------
Reading input data for simulation 8.
------------------------------------

	USE SOLUTION 1
	USE SURFACE 1
	EQUILIBRIUM_PHASES 1
	CO2(g) -3.5 10
	fix_pH -7.5 NaOH 10
	END
-----------------------------------------
Beginning of batch-reaction calculations.
-----------------------------------------

Reaction step 1.

Using solution 1.	
Using surface 1.	
Using pure phase assemblage 1.	

-------------------------------Phase assemblage--------------------------------

                                                      Moles in assemblage
Phase               SI  log IAP  log K(T, P)   Initial       Final       Delta

CO2(g)           -3.50    -4.97     -1.47    1.000e+01   1.000e+01  -2.147e-04
fix_pH           -7.50    -7.50      0.00
	 NaOH               is reactant       1.000e+01   1.000e+01  -2.581e-04

------------------------------Surface composition------------------------------

Bacta         
	 -4.116e-04  Surface charge, eq
Bacta         
	  4.400e-04  moles
	                                   Mole                     Log
	Species               Moles    Fraction    Molality    Molality

	BactaO-           4.258e-04       0.968   4.258e-04      -3.371
	BactaOZn+         1.420e-05       0.032   1.420e-05      -4.848
	BactaOH           2.686e-08       0.000   2.686e-08      -7.571

Bactb         
	 -5.530e-04  Surface charge, eq
Bactb         
	  5.600e-04  moles
	                                   Mole                     Log
	Species               Moles    Fraction    Molality    Molality

	BactbO-           5.560e-04       0.993   5.560e-04      -3.255
	BactbOZn+         2.938e-06       0.005   2.938e-06      -5.532
	BactbOH           1.109e-06       0.002   1.109e-06      -5.955

Bactc         
	 -9.566e-05  Surface charge, eq
Bactc         
	  2.200e-04  moles
	                                   Mole                     Log
	Species               Moles    Fraction    Molality    Molality

	BactcO-           1.435e-04       0.652   1.435e-04      -3.843
	BactcOZn+         4.785e-05       0.218   4.785e-05      -4.320
	BactcOH           2.863e-05       0.130   2.863e-05      -4.543

Bactd         
	 -9.066e-06  Surface charge, eq
Bactd         
	  3.700e-04  moles
	                                   Mole                     Log
	Species               Moles    Fraction    Molality    Molality

	BactdOH           3.609e-04       0.975   3.609e-04      -3.443
	BactdO-           9.066e-06       0.025   9.066e-06      -5.043

-----------------------------Solution composition------------------------------

	Elements           Molality       Moles

	C                 2.147e-04   2.147e-04
	Cl                1.200e-01   1.200e-01
	Na                1.203e-01   1.203e-01
	Zn                7.129e-05   7.129e-05

----------------------------Description of solution----------------------------

                                       pH  =   7.500      Charge balance
                                       pe  =  -2.166      Adjusted to redox equilibrium
      Specific Conductance (µS/cm,  25°C)  = 12641
                          Density (g/cm³)  =   1.00198
                               Volume (L)  =   1.00505
                        Activity of water  =   0.996
                 Ionic strength (mol/kgw)  =   1.203e-01
                       Mass of water (kg)  =   1.000e+00
                 Total alkalinity (eq/kg)  =   2.100e-04
                       Total CO2 (mol/kg)  =   2.147e-04
                         Temperature (°C)  =  25.00
                  Electrical balance (eq)  =   1.907e-04
 Percent error, 100*(Cat-|An|)/(Cat+|An|)  =   0.08
                               Iterations  =  13
                                  Total H  = 1.110127e+02
                                  Total O  = 5.550691e+01

----------------------------Distribution of species----------------------------

                                               Log       Log       Log    mole V
   Species          Molality    Activity  Molality  Activity     Gamma    cm³/mol

   OH-             4.265e-07   3.188e-07    -6.370    -6.497    -0.126     -3.68
   H+              3.867e-08   3.162e-08    -7.413    -7.500    -0.087      0.00
   H2O             5.551e+01   9.959e-01     1.744    -0.002     0.000     18.07
C(-4)         5.549e-24
   CH4             5.549e-24   5.705e-24   -23.256   -23.244     0.012     35.46
C(4)          2.147e-04
   HCO3-           1.940e-04   1.507e-04    -3.712    -3.822    -0.110     25.26
   CO2             1.047e-05   1.076e-05    -4.980    -4.968     0.012     34.43
   NaHCO3          7.679e-06   7.895e-06    -5.115    -5.103     0.012      1.80
   ZnCO3           9.127e-07   9.383e-07    -6.040    -6.028     0.012     (0)  
   CO3-2           6.130e-07   2.235e-07    -6.213    -6.651    -0.438     -4.03
   ZnHCO3+         5.178e-07   3.992e-07    -6.286    -6.399    -0.113     (0)  
   NaCO3-          5.029e-07   3.877e-07    -6.299    -6.411    -0.113     -0.17
   Zn(CO3)2-2      1.269e-08   4.484e-09    -7.897    -8.348    -0.452     (0)  
   (CO2)2          2.067e-12   2.125e-12   -11.685   -11.673     0.012     68.87
Cl            1.200e-01
   Cl-             1.200e-01   9.037e-02    -0.921    -1.044    -0.123     18.37
   ZnCl+           6.770e-06   5.118e-06    -5.169    -5.291    -0.122    -14.13
   ZnOHCl          1.929e-06   1.983e-06    -5.715    -5.703     0.012     (0)  
   ZnCl2           4.710e-07   4.843e-07    -6.327    -6.315     0.012    102.03
   ZnCl3-          6.496e-08   4.911e-08    -7.187    -7.309    -0.122     16.35
   ZnCl4-2         6.281e-09   2.224e-09    -8.202    -8.653    -0.451    146.74
H(0)          2.962e-14
   H2              1.481e-14   1.523e-14   -13.829   -13.817     0.012     28.61
Na            1.203e-01
   Na+             1.202e-01   9.315e-02    -0.920    -1.031    -0.111     -1.05
   NaHCO3          7.679e-06   7.895e-06    -5.115    -5.103     0.012      1.80
   NaCO3-          5.029e-07   3.877e-07    -6.299    -6.411    -0.113     -0.17
   NaOH            2.888e-18   2.969e-18   -17.539   -17.527     0.012     (0)  
O(0)          0.000e+00
   O2              0.000e+00   0.000e+00   -64.761   -64.749     0.012     30.40
Zn            7.129e-05
   Zn+2            5.941e-05   2.104e-05    -4.226    -4.677    -0.451    -24.63
   ZnCl+           6.770e-06   5.118e-06    -5.169    -5.291    -0.122    -14.13
   ZnOHCl          1.929e-06   1.983e-06    -5.715    -5.703     0.012     (0)  
   ZnOH+           9.423e-07   7.265e-07    -6.026    -6.139    -0.113     (0)  
   ZnCO3           9.127e-07   9.383e-07    -6.040    -6.028     0.012     (0)  
   ZnHCO3+         5.178e-07   3.992e-07    -6.286    -6.399    -0.113     (0)  
   ZnCl2           4.710e-07   4.843e-07    -6.327    -6.315     0.012    102.03
   Zn(OH)2         2.555e-07   2.627e-07    -6.593    -6.581     0.012     (0)  
   ZnCl3-          6.496e-08   4.911e-08    -7.187    -7.309    -0.122     16.35
   Zn(CO3)2-2      1.269e-08   4.484e-09    -7.897    -8.348    -0.452     (0)  
   ZnCl4-2         6.281e-09   2.224e-09    -8.202    -8.653    -0.451    146.74
   Zn(OH)3-        3.393e-11   2.616e-11   -10.469   -10.582    -0.113     (0)  
   Zn(OH)4-2       3.696e-16   1.306e-16   -15.432   -15.884    -0.452     (0)  

------------------------------Saturation indices-------------------------------

  Phase               SI** log IAP   log K(298 K,   1 atm)

  CH4(g)          -20.44    -23.24   -2.80  CH4
  CO2(g)           -3.50     -4.97   -1.47  CO2	 Pressure   0.0 atm, phi 1.000
  fix_pH           -7.50     -7.50    0.00  H+
  H2(g)           -10.72    -13.82   -3.10  H2
  H2O(g)           -1.50     -0.00    1.50  H2O
  Halite           -3.64     -2.07    1.57  NaCl
  O2(g)           -61.86    -64.75   -2.89  O2
  Smithsonite      -1.33    -11.33  -10.00  ZnCO3
  Zn(OH)2(e)       -1.18     10.32   11.50  Zn(OH)2

**For a gas, SI = log10(fugacity). Fugacity = pressure * phi / 1 atm.
  For ideal gases, phi = 1.

------------------
End of simulation.
------------------

------------------------------------
Reading input data for simulation 9.
------------------------------------

	USE SOLUTION 1
	USE SURFACE 1
	EQUILIBRIUM_PHASES 1
	CO2(g) -3.5 10
	fix_pH -8.0 NaOH 10
	END
-----------------------------------------
Beginning of batch-reaction calculations.
-----------------------------------------

Reaction step 1.

Using solution 1.	
Using surface 1.	
Using pure phase assemblage 1.	

-------------------------------Phase assemblage--------------------------------

                                                      Moles in assemblage
Phase               SI  log IAP  log K(T, P)   Initial       Final       Delta

CO2(g)           -3.50    -4.97     -1.47    1.000e+01   9.999e+00  -6.707e-04
fix_pH           -8.00    -8.00      0.00
	 NaOH               is reactant       1.000e+01   9.999e+00  -7.798e-04

------------------------------Surface composition------------------------------

Bacta         
	 -4.160e-04  Surface charge, eq
Bacta         
	  4.400e-04  moles
	                                   Mole                     Log
	Species               Moles    Fraction    Molality    Molality

	BactaO-           4.280e-04       0.973   4.280e-04      -3.369
	BactaOZn+         1.198e-05       0.027   1.198e-05      -4.921
	BactaOH           8.540e-09       0.000   8.540e-09      -8.069

Bactb         
	 -5.547e-04  Surface charge, eq
Bactb         
	  5.600e-04  moles
	                                   Mole                     Log
	Species               Moles    Fraction    Molality    Molality

	BactbO-           5.572e-04       0.995   5.572e-04      -3.254
	BactbOZn+         2.473e-06       0.004   2.473e-06      -5.607
	BactbOH           3.516e-07       0.001   3.516e-07      -6.454

Bactc         
	 -1.179e-04  Surface charge, eq
Bactc         
	  2.200e-04  moles
	                                   Mole                     Log
	Species               Moles    Fraction    Molality    Molality

	BactcO-           1.638e-04       0.745   1.638e-04      -3.786
	BactcOZn+         4.586e-05       0.208   4.586e-05      -4.339
	BactcOH           1.034e-05       0.047   1.034e-05      -4.986

Bactd         
	 -2.723e-05  Surface charge, eq
Bactd         
	  3.700e-04  moles
	                                   Mole                     Log
	Species               Moles    Fraction    Molality    Molality

	BactdOH           3.428e-04       0.926   3.428e-04      -3.465
	BactdO-           2.723e-05       0.074   2.723e-05      -4.565

-----------------------------Solution composition------------------------------

	Elements           Molality       Moles

	C                 6.707e-04   6.707e-04
	Cl                1.200e-01   1.200e-01
	Na                1.208e-01   1.208e-01
	Zn                7.596e-05   7.596e-05

----------------------------Description of solution----------------------------

                                       pH  =   8.000      Charge balance
                                       pe  =  -2.667      Adjusted to redox equilibrium
      Specific Conductance (µS/cm,  25°C)  = 12673
                          Density (g/cm³)  =   1.00201
                               Volume (L)  =   1.00506
                        Activity of water  =   0.996
                 Ionic strength (mol/kgw)  =   1.208e-01
                       Mass of water (kg)  =   1.000e+00
                 Total alkalinity (eq/kg)  =   6.945e-04
                       Total CO2 (mol/kg)  =   6.707e-04
                         Temperature (°C)  =  25.00
                  Electrical balance (eq)  =   2.372e-04
 Percent error, 100*(Cat-|An|)/(Cat+|An|)  =   0.10
                               Iterations  =  14
                                  Total H  = 1.110133e+02
                                  Total O  = 5.550834e+01

----------------------------Distribution of species----------------------------

                                               Log       Log       Log    mole V
   Species          Molality    Activity  Molality  Activity     Gamma    cm³/mol

   OH-             1.349e-06   1.008e-06    -5.870    -5.997    -0.127     -3.68
   H+              1.223e-08   1.000e-08    -7.913    -8.000    -0.087      0.00
   H2O             5.551e+01   9.959e-01     1.744    -0.002     0.000     18.07
C(-4)         5.605e-24
   CH4             5.605e-24   5.763e-24   -23.251   -23.239     0.012     35.46
C(4)          6.707e-04
   HCO3-           6.135e-04   4.766e-04    -3.212    -3.322    -0.110     25.26
   NaHCO3          2.438e-05   2.506e-05    -4.613    -4.601     0.012      1.80
   CO2             1.047e-05   1.076e-05    -4.980    -4.968     0.012     34.43
   ZnCO3           7.663e-06   7.879e-06    -5.116    -5.104     0.012     (0)  
   CO3-2           6.137e-06   2.235e-06    -5.212    -5.651    -0.439     -4.02
   NaCO3-          5.050e-06   3.892e-06    -5.297    -5.410    -0.113     -0.17
   ZnHCO3+         1.375e-06   1.060e-06    -5.862    -5.975    -0.113     (0)  
   Zn(CO3)2-2      1.067e-06   3.765e-07    -5.972    -6.424    -0.452     (0)  
   (CO2)2          2.067e-12   2.125e-12   -11.685   -11.673     0.012     68.87
Cl            1.200e-01
   Cl-             1.200e-01   9.034e-02    -0.921    -1.044    -0.123     18.37
   ZnCl+           5.685e-06   4.296e-06    -5.245    -5.367    -0.122    -14.13
   ZnOHCl          5.119e-06   5.263e-06    -5.291    -5.279     0.012     (0)  
   ZnCl2           3.952e-07   4.063e-07    -6.403    -6.391     0.012    102.03
   ZnCl3-          5.451e-08   4.119e-08    -7.264    -7.385    -0.122     16.35
   ZnCl4-2         5.272e-09   1.865e-09    -8.278    -8.729    -0.451    146.74
H(0)          2.970e-14
   H2              1.485e-14   1.527e-14   -13.828   -13.816     0.012     28.61
Na            1.208e-01
   Na+             1.208e-01   9.351e-02    -0.918    -1.029    -0.111     -1.05
   NaHCO3          2.438e-05   2.506e-05    -4.613    -4.601     0.012      1.80
   NaCO3-          5.050e-06   3.892e-06    -5.297    -5.410    -0.113     -0.17
   NaOH            9.167e-18   9.426e-18   -17.038   -17.026     0.012     (0)  
O(0)          0.000e+00
   O2              0.000e+00   0.000e+00   -64.763   -64.751     0.012     30.40
Zn            7.596e-05
   Zn+2            4.995e-05   1.767e-05    -4.301    -4.753    -0.451    -24.63
   ZnCO3           7.663e-06   7.879e-06    -5.116    -5.104     0.012     (0)  
   ZnCl+           5.685e-06   4.296e-06    -5.245    -5.367    -0.122    -14.13
   ZnOHCl          5.119e-06   5.263e-06    -5.291    -5.279     0.012     (0)  
   ZnOH+           2.503e-06   1.929e-06    -5.602    -5.715    -0.113     (0)  
   Zn(OH)2         2.145e-06   2.206e-06    -5.669    -5.656     0.012     (0)  
   ZnHCO3+         1.375e-06   1.060e-06    -5.862    -5.975    -0.113     (0)  
   Zn(CO3)2-2      1.067e-06   3.765e-07    -5.972    -6.424    -0.452     (0)  
   ZnCl2           3.952e-07   4.063e-07    -6.403    -6.391     0.012    102.03
   ZnCl3-          5.451e-08   4.119e-08    -7.264    -7.385    -0.122     16.35
   ZnCl4-2         5.272e-09   1.865e-09    -8.278    -8.729    -0.451    146.74
   Zn(OH)3-        9.013e-10   6.947e-10    -9.045    -9.158    -0.113     (0)  
   Zn(OH)4-2       3.106e-14   1.096e-14   -13.508   -13.960    -0.452     (0)  

------------------------------Saturation indices-------------------------------

  Phase               SI** log IAP   log K(298 K,   1 atm)

  CH4(g)          -20.44    -23.24   -2.80  CH4
  CO2(g)           -3.50     -4.97   -1.47  CO2	 Pressure   0.0 atm, phi 1.000
  fix_pH           -8.00     -8.00    0.00  H+
  H2(g)           -10.72    -13.82   -3.10  H2
  H2O(g)           -1.50     -0.00    1.50  H2O
  Halite           -3.64     -2.07    1.57  NaCl
  O2(g)           -61.86    -64.75   -2.89  O2
  Smithsonite      -0.40    -10.40  -10.00  ZnCO3
  Zn(OH)2(e)       -0.26     11.24   11.50  Zn(OH)2

**For a gas, SI = log10(fugacity). Fugacity = pressure * phi / 1 atm.
  For ideal gases, phi = 1.

------------------
End of simulation.
------------------

-------------------------------------
Reading input data for simulation 10.
-------------------------------------

	USE SOLUTION 1
	USE SURFACE 1
	EQUILIBRIUM_PHASES 1
	CO2(g) -3.5 10
	fix_pH -8.5 NaOH 10
	END
-----------------------------------------
Beginning of batch-reaction calculations.
-----------------------------------------

Reaction step 1.

Using solution 1.	
Using surface 1.	
Using pure phase assemblage 1.	

-------------------------------Phase assemblage--------------------------------

                                                      Moles in assemblage
Phase               SI  log IAP  log K(T, P)   Initial       Final       Delta

CO2(g)           -3.50    -4.97     -1.47    1.000e+01   9.998e+00  -2.256e-03
fix_pH           -8.50    -8.50      0.00
	 NaOH               is reactant       1.000e+01   9.997e+00  -2.637e-03

------------------------------Surface composition------------------------------

Bacta         
	 -4.307e-04  Surface charge, eq
Bacta         
	  4.400e-04  moles
	                                   Mole                     Log
	Species               Moles    Fraction    Molality    Molality

	BactaO-           4.354e-04       0.989   4.354e-04      -3.361
	BactaOZn+         4.624e-06       0.011   4.624e-06      -5.335
	BactaOH           2.747e-09       0.000   2.747e-09      -8.561

Bactb         
	 -5.580e-04  Surface charge, eq
Bactb         
	  5.600e-04  moles
	                                   Mole                     Log
	Species               Moles    Fraction    Molality    Molality

	BactbO-           5.589e-04       0.998   5.589e-04      -3.253
	BactbOZn+         9.409e-07       0.002   9.409e-07      -6.026
	BactbOH           1.115e-07       0.000   1.115e-07      -6.953

Bactc         
	 -1.746e-04  Surface charge, eq
Bactc         
	  2.200e-04  moles
	                                   Mole                     Log
	Species               Moles    Fraction    Molality    Molality

	BactcO-           1.954e-04       0.888   1.954e-04      -3.709
	BactcOZn+         2.075e-05       0.094   2.075e-05      -4.683
	BactcOH           3.898e-06       0.018   3.898e-06      -5.409

Bactd         
	 -7.428e-05  Surface charge, eq
Bactd         
	  3.700e-04  moles
	                                   Mole                     Log
[...]
   HCO3-           6.166e-03   4.765e-03    -2.210    -2.322    -0.112     25.29
   CO3-2           6.266e-04   2.235e-04    -3.203    -3.651    -0.448     -3.97
   NaCO3-          5.380e-04   4.128e-04    -3.269    -3.384    -0.115     -0.12
   NaHCO3          2.580e-04   2.658e-04    -3.588    -3.575     0.013      1.80
   Zn(CO3)2-2      1.227e-04   4.251e-05    -3.911    -4.372    -0.460     (0)  
   CO2             1.045e-05   1.076e-05    -4.981    -4.968     0.013     34.43
   ZnCO3           8.637e-06   8.898e-06    -5.064    -5.051     0.013     (0)  
   ZnHCO3+         1.560e-07   1.197e-07    -6.807    -6.922    -0.115     (0)  
   (CO2)2          2.063e-12   2.125e-12   -11.685   -11.673     0.013     68.87
Cl            1.200e-01
   Cl-             1.200e-01   8.975e-02    -0.921    -1.047    -0.126     18.38
   ZnOHCl          5.731e-07   5.905e-07    -6.242    -6.229     0.013     (0)  
   ZnCl+           6.421e-08   4.820e-08    -7.192    -7.317    -0.125    -14.16
   ZnCl2           4.397e-09   4.530e-09    -8.357    -8.344     0.013    102.03
   ZnCl3-          6.077e-10   4.562e-10    -9.216    -9.341    -0.125     16.29
   ZnCl4-2         5.933e-11   2.052e-11   -10.227   -10.688    -0.461    146.82
H(0)          2.972e-14
   H2              1.486e-14   1.531e-14   -13.828   -13.815     0.013     28.61
Na            1.295e-01
   Na+             1.287e-01   9.919e-02    -0.890    -1.004    -0.113     -1.04
   NaCO3-          5.380e-04   4.128e-04    -3.269    -3.384    -0.115     -0.12
   NaHCO3          2.580e-04   2.658e-04    -3.588    -3.575     0.013      1.80
   NaOH            9.703e-17   9.996e-17   -16.013   -16.000     0.013     (0)  
O(0)          0.000e+00
   O2              0.000e+00   0.000e+00   -64.767   -64.754     0.013     30.40
Zn            1.354e-04
   Zn(CO3)2-2      1.227e-04   4.251e-05    -3.911    -4.372    -0.460     (0)  
   ZnCO3           8.637e-06   8.898e-06    -5.064    -5.051     0.013     (0)  
   Zn(OH)2         2.417e-06   2.490e-06    -5.617    -5.604     0.013     (0)  
   Zn+2            5.770e-07   1.996e-07    -6.239    -6.700    -0.461    -24.61
   ZnOHCl          5.731e-07   5.905e-07    -6.242    -6.229     0.013     (0)  
   ZnOH+           2.840e-07   2.178e-07    -6.547    -6.662    -0.115     (0)  
   ZnHCO3+         1.560e-07   1.197e-07    -6.807    -6.922    -0.115     (0)  
   ZnCl+           6.421e-08   4.820e-08    -7.192    -7.317    -0.125    -14.16
   Zn(OH)3-        1.022e-08   7.841e-09    -7.991    -8.106    -0.115     (0)  
   ZnCl2           4.397e-09   4.530e-09    -8.357    -8.344     0.013    102.03
   ZnCl3-          6.077e-10   4.562e-10    -9.216    -9.341    -0.125     16.29
   ZnCl4-2         5.933e-11   2.052e-11   -10.227   -10.688    -0.461    146.82
   Zn(OH)4-2       3.571e-12   1.237e-12   -11.447   -11.908    -0.460     (0)  

------------------------------Saturation indices-------------------------------

  Phase               SI** log IAP   log K(298 K,   1 atm)

  CH4(g)          -20.43    -23.23   -2.80  CH4
  CO2(g)           -3.50     -4.97   -1.47  CO2	 Pressure   0.0 atm, phi 1.000
  fix_pH           -9.00     -9.00    0.00  H+
  H2(g)           -10.71    -13.82   -3.10  H2
  H2O(g)           -1.50     -0.00    1.50  H2O
  Halite           -3.62     -2.05    1.57  NaCl
  O2(g)           -61.86    -64.75   -2.89  O2
  Smithsonite      -0.35    -10.35  -10.00  ZnCO3
  Zn(OH)2(e)       -0.20     11.30   11.50  Zn(OH)2

**For a gas, SI = log10(fugacity). Fugacity = pressure * phi / 1 atm.
  For ideal gases, phi = 1.

------------------
End of simulation.
------------------

-------------------------------------
Reading input data for simulation 12.
-------------------------------------

	USE SOLUTION 1
	USE SURFACE 1
	EQUILIBRIUM_PHASES 1
	CO2(g) -3.5 10
	fix_pH -9.5 NaOH 10
	END
-----------------------------------------
Beginning of batch-reaction calculations.
-----------------------------------------

Reaction step 1.

Using solution 1.	
Using surface 1.	
Using pure phase assemblage 1.	

-------------------------------Phase assemblage--------------------------------

                                                      Moles in assemblage
Phase               SI  log IAP  log K(T, P)   Initial       Final       Delta

CO2(g)           -3.50    -4.97     -1.47    1.000e+01   9.965e+00  -3.469e-02
fix_pH           -9.50    -9.50      0.00
	 NaOH               is reactant       1.000e+01   9.951e+00  -4.886e-02

------------------------------Surface composition------------------------------

Bacta         
	 -4.400e-04  Surface charge, eq
Bacta         
	  4.400e-04  moles
	                                   Mole                     Log
	Species               Moles    Fraction    Molality    Molality

	BactaO-           4.400e-04       1.000   4.399e-04      -3.357
	BactaOZn+         1.433e-09       0.000   1.433e-09      -8.844
	BactaOH           2.776e-10       0.000   2.775e-10      -9.557

Bactb         
	 -5.600e-04  Surface charge, eq
Bactb         
	  5.600e-04  moles
	                                   Mole                     Log
	Species               Moles    Fraction    Molality    Molality

	BactbO-           5.600e-04       1.000   5.598e-04      -3.252
	BactbOH           1.117e-08       0.000   1.117e-08      -7.952
	BactbOZn+         2.891e-10       0.000   2.890e-10      -9.539

Bactc         
	 -2.195e-04  Surface charge, eq
Bactc         
	  2.200e-04  moles
	                                   Mole                     Log
	Species               Moles    Fraction    Molality    Molality

	BactcO-           2.196e-04       0.998   2.195e-04      -3.659
	BactcOH           4.381e-07       0.002   4.380e-07      -6.359
	BactcOZn+         7.152e-09       0.000   7.150e-09      -8.146

Bactd         
	 -2.646e-04  Surface charge, eq
Bactd         
	  3.700e-04  moles
	                                   Mole                     Log
	Species               Moles    Fraction    Molality    Molality

	BactdO-           2.646e-04       0.715   2.646e-04      -3.577
	BactdOH           1.054e-04       0.285   1.053e-04      -3.977

-----------------------------Solution composition------------------------------

	Elements           Molality       Moles

	C                 3.469e-02   3.469e-02
	Cl                1.200e-01   1.200e-01
	Na                1.688e-01   1.689e-01
	Zn                1.362e-04   1.363e-04

----------------------------Description of solution----------------------------

                                       pH  =   9.500      Charge balance
                                       pe  =  -4.169      Adjusted to redox equilibrium
      Specific Conductance (µS/cm,  25°C)  = 15599
                          Density (g/cm³)  =   1.00472
                               Volume (L)  =   1.00576
                        Activity of water  =   0.995
                 Ionic strength (mol/kgw)  =   1.677e-01
                       Mass of water (kg)  =   1.000e+00
                 Total alkalinity (eq/kg)  =   4.851e-02
                       Total CO2 (mol/kg)  =   3.469e-02
                         Temperature (°C)  =  25.00
                  Electrical balance (eq)  =   6.055e-04
 Percent error, 100*(Cat-|An|)/(Cat+|An|)  =   0.19
                               Iterations  =  21
                                  Total H  = 1.110616e+02
                                  Total O  = 5.562447e+01

----------------------------Distribution of species----------------------------

                                               Log       Log       Log    mole V
   Species          Molality    Activity  Molality  Activity     Gamma    cm³/mol

   OH-             4.415e-05   3.184e-05    -4.355    -4.497    -0.142     -3.57
   H+              3.931e-10   3.162e-10    -9.406    -9.500    -0.094      0.00
   H2O             5.551e+01   9.946e-01     1.744    -0.002     0.000     18.07
C(-4)         5.752e-24
   CH4             5.752e-24   5.979e-24   -23.240   -23.223     0.017     35.46
C(4)          3.469e-02
   HCO3-           1.989e-02   1.505e-02    -1.701    -1.822    -0.121     25.42
   CO3-2           6.803e-03   2.232e-03    -2.167    -2.651    -0.484     -3.77
   NaCO3-          6.719e-03   5.067e-03    -2.173    -2.295    -0.123      0.11
   NaHCO3          9.928e-04   1.032e-03    -3.003    -2.986     0.017      1.80
   Zn(CO3)2-2      1.351e-04   4.370e-05    -3.869    -4.360    -0.490     (0)  
   CO2             1.035e-05   1.076e-05    -4.985    -4.968     0.017     34.43
   ZnCO3           8.808e-07   9.155e-07    -6.055    -6.038     0.017     (0)  
   ZnHCO3+         5.165e-09   3.895e-09    -8.287    -8.409    -0.123     (0)  
   (CO2)2          2.045e-12   2.125e-12   -11.689   -11.673     0.017     68.87
Cl            1.200e-01
   Cl-             1.200e-01   8.741e-02    -0.921    -1.058    -0.137     18.42
   ZnOHCl          1.800e-08   1.871e-08    -7.745    -7.728     0.017     (0)  
   ZnCl+           6.611e-10   4.836e-10    -9.180    -9.316    -0.136    -14.27
   ZnCl2           4.259e-11   4.426e-11   -10.371   -10.354     0.017    102.03
   ZnCl3-          5.935e-12   4.341e-12   -11.227   -11.362    -0.136     16.04
   ZnCl4-2         6.008e-13   1.902e-13   -12.221   -12.721    -0.500    147.13
H(0)          2.963e-14
   H2              1.481e-14   1.540e-14   -13.829   -13.813     0.017     28.61
Na            1.688e-01
   Na+             1.611e-01   1.219e-01    -0.793    -0.914    -0.121     -0.98
   NaCO3-          6.719e-03   5.067e-03    -2.173    -2.295    -0.123      0.11
   NaHCO3          9.928e-04   1.032e-03    -3.003    -2.986     0.017      1.80
   NaOH            3.734e-16   3.881e-16   -15.428   -15.411     0.017     (0)  
O(0)          0.000e+00
   O2              0.000e+00   0.000e+00   -64.776   -64.760     0.017     30.40
Zn            1.362e-04
   Zn(CO3)2-2      1.351e-04   4.370e-05    -3.869    -4.360    -0.490     (0)  
   ZnCO3           8.808e-07   9.155e-07    -6.055    -6.038     0.017     (0)  
   Zn(OH)2         2.463e-07   2.560e-07    -6.609    -6.592     0.017     (0)  
   ZnOHCl          1.800e-08   1.871e-08    -7.745    -7.728     0.017     (0)  
   ZnOH+           9.399e-09   7.088e-09    -8.027    -8.149    -0.123     (0)  
   Zn+2            6.493e-09   2.055e-09    -8.188    -8.687    -0.500    -24.54
   ZnHCO3+         5.165e-09   3.895e-09    -8.287    -8.409    -0.123     (0)  
   Zn(OH)3-        3.376e-09   2.546e-09    -8.472    -8.594    -0.123     (0)  
   ZnCl+           6.611e-10   4.836e-10    -9.180    -9.316    -0.136    -14.27
   ZnCl2           4.259e-11   4.426e-11   -10.371   -10.354     0.017    102.03
   ZnCl3-          5.935e-12   4.341e-12   -11.227   -11.362    -0.136     16.04
   Zn(OH)4-2       3.923e-12   1.269e-12   -11.406   -11.896    -0.490     (0)  
   ZnCl4-2         6.008e-13   1.902e-13   -12.221   -12.721    -0.500    147.13

------------------------------Saturation indices-------------------------------

  Phase               SI** log IAP   log K(298 K,   1 atm)

  CH4(g)          -20.42    -23.22   -2.80  CH4
  CO2(g)           -3.50     -4.97   -1.47  CO2	 Pressure   0.0 atm, phi 1.000
  fix_pH           -9.50     -9.50    0.00  H+
  H2(g)           -10.71    -13.81   -3.10  H2
  H2O(g)           -1.51     -0.00    1.50  H2O
  Halite           -3.54     -1.97    1.57  NaCl
  O2(g)           -61.87    -64.76   -2.89  O2
  Smithsonite      -1.34    -11.34  -10.00  ZnCO3
  Zn(OH)2(e)       -1.19     10.31   11.50  Zn(OH)2

**For a gas, SI = log10(fugacity). Fugacity = pressure * phi / 1 atm.
  For ideal gases, phi = 1.

------------------
End of simulation.
------------------

-------------------------------------
Reading input data for simulation 13.
-------------------------------------

	USE SOLUTION 1
	USE SURFACE 1
	EQUILIBRIUM_PHASES 1
	CO2(g) -3.5 10
	fix_pH -10.0 NaOH 10
	END
-----------------------------------------
Beginning of batch-reaction calculations.
-----------------------------------------

Reaction step 1.

Using solution 1.	
Using surface 1.	
Using pure phase assemblage 1.	

-------------------------------Phase assemblage--------------------------------

                                                      Moles in assemblage
Phase               SI  log IAP  log K(T, P)   Initial       Final       Delta

CO2(g)           -3.50    -4.97     -1.47    1.000e+01   9.543e+00  -4.566e-01
fix_pH          -10.00   -10.00      0.00
	 NaOH               is reactant       1.000e+01   9.168e+00  -8.323e-01

------------------------------Surface composition------------------------------

Bacta         
	 -4.400e-04  Surface charge, eq
Bacta         
	  4.400e-04  moles
	                                   Mole                     Log
	Species               Moles    Fraction    Molality    Molality

	BactaO-           4.400e-04       1.000   4.370e-04      -3.359
	BactaOH           8.779e-11       0.000   8.720e-11     -10.059
	BactaOZn+         1.524e-11       0.000   1.513e-11     -10.820

Bactb         
	 -5.600e-04  Surface charge, eq
Bactb         
	  5.600e-04  moles
	                                   Mole                     Log
	Species               Moles    Fraction    Molality    Molality

	BactbO-           5.600e-04       1.000   5.562e-04      -3.255
	BactbOH           3.533e-09       0.000   3.510e-09      -8.455
	BactbOZn+         3.073e-12       0.000   3.052e-12     -11.515

Bactc         
	 -2.199e-04  Surface charge, eq
Bactc         
	  2.200e-04  moles
	                                   Mole                     Log
	Species               Moles    Fraction    Molality    Molality

	BactcO-           2.199e-04       0.999   2.184e-04      -3.661
	BactcOH           1.387e-07       0.001   1.378e-07      -6.861
	BactcOZn+         7.613e-11       0.000   7.562e-11     -10.121

Bactd         
	 -3.286e-04  Surface charge, eq
Bactd         
	  3.700e-04  moles
	                                   Mole                     Log
	Species               Moles    Fraction    Molality    Molality

	BactdO-           3.286e-04       0.888   3.264e-04      -3.486
	BactdOH           4.137e-05       0.112   4.109e-05      -4.386

-----------------------------Solution composition------------------------------

	Elements           Molality       Moles

	C                 4.535e-01   4.566e-01
	Cl                1.192e-01   1.200e-01
	Na                9.459e-01   9.523e-01
	Zn                1.354e-04   1.363e-04

----------------------------Description of solution----------------------------

                                       pH  =  10.000      Charge balance
                                       pe  =  -4.701      Adjusted to redox equilibrium
      Specific Conductance (µS/cm,  25°C)  = 49631
                          Density (g/cm³)  =   1.04536
                               Volume (L)  =   1.01439
                        Activity of water  =   0.979
                 Ionic strength (mol/kgw)  =   7.843e-01
                       Mass of water (kg)  =   1.007e+00
                 Total alkalinity (eq/kg)  =   8.263e-01
                       Total CO2 (mol/kg)  =   4.535e-01
                         Temperature (°C)  =  25.00
                  Electrical balance (eq)  =   6.698e-04
 Percent error, 100*(Cat-|An|)/(Cat+|An|)  =   0.05
                               Iterations  =  20
                                  Total H  = 1.118451e+02
                                  Total O  = 5.725172e+01

----------------------------Distribution of species----------------------------

                                               Log       Log       Log    mole V
   Species          Molality    Activity  Molality  Activity     Gamma    cm³/mol

   OH-             1.659e-04   9.907e-05    -3.780    -4.004    -0.224     -2.45
   H+              1.333e-10   1.000e-10    -9.875   -10.000    -0.125      0.00
   H2O             5.551e+01   9.788e-01     1.744    -0.009     0.000     18.07
C(-4)         9.388e-24
   CH4             9.388e-24   1.125e-23   -23.027   -22.949     0.078     35.46
C(4)          4.535e-01
   NaCO3-          2.616e-01   1.986e-01    -0.582    -0.702    -0.120      3.46
   CO3-2           1.108e-01   2.197e-02    -0.955    -1.658    -0.703     -1.68
   HCO3-           7.020e-02   4.685e-02    -1.154    -1.329    -0.176     27.29
   NaHCO3          1.068e-02   1.279e-02    -1.972    -1.893     0.078      1.80
   Zn(CO3)2-2      1.353e-04   4.498e-05    -3.869    -4.347    -0.478     (0)  
   CO2             8.983e-06   1.076e-05    -5.047    -4.968     0.078     34.43
   ZnCO3           7.994e-08   9.576e-08    -7.097    -7.019     0.078     (0)  
   ZnHCO3+         1.697e-10   1.288e-10    -9.770    -9.890    -0.120     (0)  
   (CO2)2          1.774e-12   2.125e-12   -11.751   -11.673     0.078     68.87
Cl            1.192e-01
   Cl-             1.192e-01   7.411e-02    -0.924    -1.130    -0.206     18.85
   ZnOHCl          4.381e-10   5.248e-10    -9.358    -9.280     0.078     (0)  
   ZnCl+           7.048e-12   4.358e-12   -11.152   -11.361    -0.209    -16.32
   ZnCl2           2.823e-13   3.382e-13   -12.549   -12.471     0.078    102.03
   ZnCl3-          4.548e-14   2.812e-14   -13.342   -13.551    -0.209     11.71
   ZnCl4-2         5.689e-15   1.045e-15   -14.245   -14.981    -0.736    150.92
H(0)          2.987e-14
   H2              1.493e-14   1.789e-14   -13.826   -13.747     0.078     28.61
Na            9.459e-01
   Na+             6.737e-01   4.855e-01    -0.172    -0.314    -0.142     -0.43
   NaCO3-          2.616e-01   1.986e-01    -0.582    -0.702    -0.120      3.46
   NaHCO3          1.068e-02   1.279e-02    -1.972    -1.893     0.078      1.80
   NaOH            4.016e-15   4.810e-15   -14.396   -14.318     0.078     (0)  
O(0)          0.000e+00
   O2              0.000e+00   0.000e+00   -64.982   -64.904     0.078     30.40
Zn            1.354e-04
   Zn(CO3)2-2      1.353e-04   4.498e-05    -3.869    -4.347    -0.478     (0)  
   ZnCO3           7.994e-08   9.576e-08    -7.097    -7.019     0.078     (0)  
   Zn(OH)2         2.200e-08   2.635e-08    -7.658    -7.579     0.078     (0)  
   Zn(OH)3-        1.074e-09   8.156e-10    -8.969    -9.089    -0.120     (0)  
   ZnOHCl          4.381e-10   5.248e-10    -9.358    -9.280     0.078     (0)  
   ZnOH+           3.088e-10   2.345e-10    -9.510    -9.630    -0.120     (0)  
   ZnHCO3+         1.697e-10   1.288e-10    -9.770    -9.890    -0.120     (0)  
   Zn+2            1.190e-10   2.185e-11    -9.925   -10.661    -0.736    -24.05
   ZnCl+           7.048e-12   4.358e-12   -11.152   -11.361    -0.209    -16.32
   Zn(OH)4-2       3.805e-12   1.265e-12   -11.420   -11.898    -0.478     (0)  
   ZnCl2           2.823e-13   3.382e-13   -12.549   -12.471     0.078    102.03
   ZnCl3-          4.548e-14   2.812e-14   -13.342   -13.551    -0.209     11.71
   ZnCl4-2         5.689e-15   1.045e-15   -14.245   -14.981    -0.736    150.92

------------------------------Saturation indices-------------------------------

  Phase               SI** log IAP   log K(298 K,   1 atm)

  CH4(g)          -20.15    -22.95   -2.80  CH4
  CO2(g)           -3.50     -4.97   -1.47  CO2	 Pressure   0.0 atm, phi 1.000
  fix_pH          -10.00    -10.00    0.00  H+
  H2(g)           -10.65    -13.75   -3.10  H2
  H2O(g)           -1.51     -0.01    1.50  H2O
  Halite           -3.01     -1.44    1.57  NaCl
  O2(g)           -62.01    -64.90   -2.89  O2
  Smithsonite      -2.32    -12.32  -10.00  ZnCO3
  Zn(OH)2(e)       -2.18      9.32   11.50  Zn(OH)2

**For a gas, SI = log10(fugacity). Fugacity = pressure * phi / 1 atm.
  For ideal gases, phi = 1.

------------------
End of simulation.
------------------

-------------------------------------
Reading input data for simulation 14.
-------------------------------------

----------------------------------
End of Run after 0.009469 Seconds.
----------------------------------

