   Input file: BactZnNom.pqi
  Output file: BactZnNom.pqo
Database file: /home/drew/opt/phreeqc/database/minteq.v4.dat

------------------
Reading data base.
------------------

	SOLUTION_MASTER_SPECIES
	SOLUTION_SPECIES
	SOLUTION_SPECIES
	PHASES
	PHASES
	SURFACE_MASTER_SPECIES
	SURFACE_SPECIES
	END
------------------------------------
Reading input data for simulation 1.
------------------------------------

	SURFACE_MASTER_SPECIES
	Bacta BactaO-
	Bactb BactbO-
	Bactc BactcO-
	Bactd BactdO-
	SURFACE_SPECIES
	BactaO- = BactaO-
	log_k 0
	BactbO- = BactbO-
	log_k 0
	BactcO- = BactcO-
	log_k 0
	BactdO- = BactdO-
	log_k 0
	BactaO- + H+ = BactaOH
	log_k 3.3
	BactbO- + H+ = BactbOH
	log_k 4.8
	BactcO- + H+ = BactcOH
	log_k 6.8
	BactdO- + H+ = BactdOH
	log_k 9.1
	BactaO- + Zn+2 = BactaOZn+
	log_k 3.2
	BactbO- + Zn+2 = BactbOZn+
	log_k 2.4
	BactcO- + Zn+2 = BactcOZn+
	log_k 4.2
	SOLUTION_MASTER_SPECIES
	Noma  NomaO- 1 Noma  1
	Nomb  NombO- 1 Nomb  1
	Nomc  NomcO- 1 Nomc  1
	Nomd  NomdO- 1 Nomd  1
	SOLUTION_SPECIES
	NomaO- = NomaO-
	log_k 0
	NombO- = NombO-
	log_k 0
	NomcO- = NomcO-
	log_k 0
	NomdO- = NomdO-
	log_k 0
	NomaO- + H+ = NomaOH
	log_k 3.12
	NombO- + H+ = NombOH
	log_k 4.70
	NomcO- + H+ = NomcOH
	log_k 6.57
	NomdO- + H+ = NomdOH
	log_k 8.99
	NomaO- + Zn+2 = NomaOZn+
	log_k 2.86
	NombO- + Zn+2 = NombOZn+
	log_k 3.62
	NomcO- + Zn+2 = NomcOZn+
	log_k 2.95
	NomdO- + Zn+2 = NomdOZn+
	log_k 3.48
	SOLUTION 1
	    temp      25
	    pH        7
	    pe        4
	    redox     pe
	    units     mmol/kgw
	    density   1
	    Cl        120
	    Na        120
	    Zn        0.076
	    Noma      2.15e-1
	    Nomb      3.56e-1
	    Nomc      1.93e-1
	    Nomd      4.29e-1
	    water    1 # kg
	SURFACE 1
	    BactaO-    0.00044
	    BactbO-    0.00056
	    BactcO-    0.00022
	    BactdO-    0.00037
	    equilibrate Solution 1
	    no_edl
	PHASES 1
	fix_pH
	H+ = H+
	log_k 0
	SELECTED_OUTPUT 1
	    file                 nom_output.sel
	    reset                false
	    ph                   true
	    molalities           BactaOZn+  BactbOZn+  BactcOZn+  NomcOZn+
	                          NomaOZn+  NombOZn+  NomdOZn+
	END
-------------------------------------------
Beginning of initial solution calculations.
-------------------------------------------

Initial solution 1.	

-----------------------------Solution composition------------------------------

	Elements           Molality       Moles

	Cl                1.200e-01   1.200e-01
	Na                1.200e-01   1.200e-01
	Noma              2.150e-04   2.150e-04
	Nomb              3.560e-04   3.560e-04
	Nomc              1.930e-04   1.930e-04
	Nomd              4.290e-04   4.290e-04
	Zn                7.600e-05   7.600e-05

----------------------------Description of solution----------------------------

                                       pH  =   7.000    
                                       pe  =   4.000    
                        Activity of water  =   0.996
                 Ionic strength (mol/kgw)  =   1.205e-01
                       Mass of water (kg)  =   1.000e+00
                 Total alkalinity (eq/kg)  =   7.279e-04
                         Temperature (°C)  =  25.00
                  Electrical balance (eq)  =  -5.759e-04
 Percent error, 100*(Cat-|An|)/(Cat+|An|)  =  -0.24
                               Iterations  =   4
                                  Total H  = 1.110141e+02
                                  Total O  = 5.550803e+01

----------------------------Distribution of species----------------------------

                                               Log       Log       Log    mole V
   Species          Molality    Activity  Molality  Activity     Gamma   cm³/mol

   OH-             1.342e-07   1.003e-07    -6.872    -6.999    -0.127     (0)  
   H+              1.297e-07   1.000e-07    -6.887    -7.000    -0.113      0.00
   H2O             5.551e+01   9.959e-01     1.744    -0.002     0.000     18.07
Cl            1.200e-01
   Cl-             1.200e-01   9.251e-02    -0.921    -1.034    -0.113     (0)  
   ZnCl+           4.753e-06   3.593e-06    -5.323    -5.445    -0.122     (0)  
   ZnCl2           5.268e-07   5.268e-07    -6.278    -6.278     0.000     (0)  
   ZnOHCl          4.717e-07   4.717e-07    -6.326    -6.326     0.000     (0)  
   ZnCl3-          5.121e-08   3.871e-08    -7.291    -7.412    -0.122     (0)  
   ZnCl4-2         5.058e-09   1.791e-09    -8.296    -8.747    -0.451     (0)  
H(0)          1.377e-25
   H2              6.886e-26   7.079e-26   -25.162   -25.150     0.012     (0)  
Na            1.200e-01
   Na+             1.200e-01   9.251e-02    -0.921    -1.034    -0.113     (0)  
Noma          2.150e-04
   NomaO-          2.126e-04   1.639e-04    -3.672    -3.785    -0.113     (0)  
   NomaOZn+        2.381e-06   1.836e-06    -5.623    -5.736    -0.113     (0)  
   NomaOH          2.102e-08   2.161e-08    -7.677    -7.665     0.012     (0)  
Nomb          3.560e-04
   NombO-          3.333e-04   2.569e-04    -3.477    -3.590    -0.113     (0)  
   NombOZn+        2.148e-05   1.656e-05    -4.668    -4.781    -0.113     (0)  
   NombOH          1.252e-06   1.288e-06    -5.902    -5.890     0.012     (0)  
Nomc          1.930e-04
   NomcO-          1.493e-04   1.151e-04    -3.826    -3.939    -0.113     (0)  
   NomcOH          4.161e-05   4.278e-05    -4.381    -4.369     0.012     (0)  
   NomcOZn+        2.058e-06   1.587e-06    -5.687    -5.800    -0.113     (0)  
Nomd          4.290e-04
   NomdOH          4.230e-04   4.349e-04    -3.374    -3.362     0.012     (0)  
   NomdO-          5.772e-06   4.450e-06    -5.239    -5.352    -0.113     (0)  
   NomdOZn+        2.695e-07   2.078e-07    -6.569    -6.682    -0.113     (0)  
O(0)          0.000e+00
   O2              0.000e+00   0.000e+00   -42.011   -41.999     0.012     (0)  
Zn            7.600e-05
   Zn+2            4.377e-05   1.546e-05    -4.359    -4.811    -0.452     (0)  
   NombOZn+        2.148e-05   1.656e-05    -4.668    -4.781    -0.113     (0)  
   ZnCl+           4.753e-06   3.593e-06    -5.323    -5.445    -0.122     (0)  
   NomaOZn+        2.381e-06   1.836e-06    -5.623    -5.736    -0.113     (0)  
   NomcOZn+        2.058e-06   1.587e-06    -5.687    -5.800    -0.113     (0)  
   ZnCl2           5.268e-07   5.268e-07    -6.278    -6.278     0.000     (0)  
   ZnOHCl          4.717e-07   4.717e-07    -6.326    -6.326     0.000     (0)  
   NomdOZn+        2.695e-07   2.078e-07    -6.569    -6.682    -0.113     (0)  
   ZnOH+           2.331e-07   1.550e-07    -6.633    -6.810    -0.177     (0)  
   ZnCl3-          5.121e-08   3.871e-08    -7.291    -7.412    -0.122     (0)  
   ZnCl4-2         5.058e-09   1.791e-09    -8.296    -8.747    -0.451     (0)  
   Zn(OH)2         2.464e-09   2.464e-09    -8.608    -8.608     0.000     (0)  
   Zn(OH)3-        1.862e-12   1.239e-12   -11.730   -11.907    -0.177     (0)  
   Zn(OH)4-2       2.524e-17   4.944e-18   -16.598   -17.306    -0.708     (0)  

------------------------------Saturation indices-------------------------------

  Phase               SI** log IAP   log K(298 K,   1 atm)

  fix_pH           -7.00     -7.00    0.00  H+
  Halite           -3.67     -2.07    1.60  NaCl
  O2(g)           -39.09     44.00   83.09  O2
  Zincite          -2.15      9.19   11.33  ZnO
  Zn(OH)2          -3.01      9.19   12.20  Zn(OH)2
  Zn(OH)2(am)      -3.29      9.19   12.47  Zn(OH)2
  Zn(OH)2(beta)    -2.57      9.19   11.75  Zn(OH)2
  Zn(OH)2(epsilon)  -2.35      9.19   11.53  Zn(OH)2
  Zn(OH)2(gamma)   -2.55      9.19   11.73  Zn(OH)2
  Zn2(OH)3Cl       -4.85     10.34   15.19  Zn2(OH)3Cl
  Zn5(OH)8Cl2      -8.64     29.86   38.50  Zn5(OH)8Cl2
  ZnCl2           -13.93     -6.88    7.05  ZnCl2
  Znmetal         -38.60    -12.81   25.79  Zn
  ZnO(active)      -2.00      9.19   11.19  ZnO

**For a gas, SI = log10(fugacity). Fugacity = pressure * phi / 1 atm.
  For ideal gases, phi = 1.

------------------------------------------------------
Beginning of initial surface-composition calculations.
------------------------------------------------------

Surface 1.	

Bacta         
	 -4.189e-04  Surface charge, eq
Bacta         
	  4.400e-04  moles
	                                   Mole                     Log
	Species               Moles    Fraction    Molality    Molality

	BactaO-           4.294e-04       0.976   4.294e-04      -3.367
	BactaOZn+         1.052e-05       0.024   1.052e-05      -4.978
	BactaOH           8.567e-08       0.000   8.567e-08      -7.067

Bactb         
	 -5.522e-04  Surface charge, eq
Bactb         
	  5.600e-04  moles
	                                   Mole                     Log
	Species               Moles    Fraction    Molality    Molality

	BactbO-           5.543e-04       0.990   5.543e-04      -3.256
	BactbOH           3.498e-06       0.006   3.498e-06      -5.456
	BactbOZn+         2.153e-06       0.004   2.153e-06      -5.667

Bactc         
	 -8.853e-05  Surface charge, eq
Bactc         
	  2.200e-04  moles
	                                   Mole                     Log
	Species               Moles    Fraction    Molality    Molality

	BactcO-           1.173e-04       0.533   1.173e-04      -3.931
	BactcOH           7.399e-05       0.336   7.399e-05      -4.131
	BactcOZn+         2.874e-05       0.131   2.874e-05      -4.542

Bactd         
	 -2.916e-06  Surface charge, eq
Bactd         
	  3.700e-04  moles
	                                   Mole                     Log
	Species               Moles    Fraction    Molality    Molality

	BactdOH           3.671e-04       0.992   3.671e-04      -3.435
	BactdO-           2.916e-06       0.008   2.916e-06      -5.535

-----------------------------------------
Beginning of batch-reaction calculations.
-----------------------------------------

Reaction step 1.

Using solution 1.	
Using surface 1.	

------------------------------Surface composition------------------------------

Bacta         
	 -4.189e-04  Surface charge, eq
Bacta         
	  4.400e-04  moles
	                                   Mole                     Log
	Species               Moles    Fraction    Molality    Molality

	BactaO-           4.294e-04       0.976   4.294e-04      -3.367
	BactaOZn+         1.052e-05       0.024   1.052e-05      -4.978
	BactaOH           8.567e-08       0.000   8.567e-08      -7.067

Bactb         
	 -5.522e-04  Surface charge, eq
Bactb         
	  5.600e-04  moles
	                                   Mole                     Log
	Species               Moles    Fraction    Molality    Molality

	BactbO-           5.543e-04       0.990   5.543e-04      -3.256
	BactbOH           3.498e-06       0.006   3.498e-06      -5.456
	BactbOZn+         2.153e-06       0.004   2.153e-06      -5.667

Bactc         
	 -8.853e-05  Surface charge, eq
Bactc         
	  2.200e-04  moles
	                                   Mole                     Log
	Species               Moles    Fraction    Molality    Molality

	BactcO-           1.173e-04       0.533   1.173e-04      -3.931
	BactcOH           7.399e-05       0.336   7.399e-05      -4.131
	BactcOZn+         2.874e-05       0.131   2.874e-05      -4.542

Bactd         
	 -2.916e-06  Surface charge, eq
Bactd         
	  3.700e-04  moles
	                                   Mole                     Log
	Species               Moles    Fraction    Molality    Molality

	BactdOH           3.671e-04       0.992   3.671e-04      -3.435
	BactdO-           2.916e-06       0.008   2.916e-06      -5.535

-----------------------------Solution composition------------------------------

	Elements           Molality       Moles

	Cl                1.200e-01   1.200e-01
	Na                1.200e-01   1.200e-01
	Noma              2.150e-04   2.150e-04
	Nomb              3.560e-04   3.560e-04
	Nomc              1.930e-04   1.930e-04
	Nomd              4.290e-04   4.290e-04
	Zn                7.600e-05   7.600e-05

----------------------------Description of solution----------------------------

                                       pH  =   7.000      Charge balance
                                       pe  =   4.000      Adjusted to redox equilibrium
                        Activity of water  =   0.996
                 Ionic strength (mol/kgw)  =   1.205e-01
                       Mass of water (kg)  =   1.000e+00
                 Total alkalinity (eq/kg)  =   7.279e-04
                         Temperature (°C)  =  25.00
                  Electrical balance (eq)  =  -5.759e-04
 Percent error, 100*(Cat-|An|)/(Cat+|An|)  =  -0.24
                               Iterations  =   0
                                  Total H  = 1.110141e+02
                                  Total O  = 5.550803e+01

----------------------------Distribution of species----------------------------

                                               Log       Log       Log    mole V
   Species          Molality    Activity  Molality  Activity     Gamma   cm³/mol

   OH-             1.342e-07   1.003e-07    -6.872    -6.999    -0.127     (0)  
   H+              1.297e-07   1.000e-07    -6.887    -7.000    -0.113      0.00
   H2O             5.551e+01   9.959e-01     1.744    -0.002     0.000     18.07
Cl            1.200e-01
   Cl-             1.200e-01   9.251e-02    -0.921    -1.034    -0.113     (0)  
   ZnCl+           4.753e-06   3.593e-06    -5.323    -5.445    -0.122     (0)  
   ZnCl2           5.268e-07   5.268e-07    -6.278    -6.278     0.000     (0)  
   ZnOHCl          4.717e-07   4.717e-07    -6.326    -6.326     0.000     (0)  
   ZnCl3-          5.121e-08   3.871e-08    -7.291    -7.412    -0.122     (0)  
   ZnCl4-2         5.058e-09   1.791e-09    -8.296    -8.747    -0.451     (0)  
H(0)          1.377e-25
   H2              6.886e-26   7.079e-26   -25.162   -25.150     0.012     (0)  
Na            1.200e-01
   Na+             1.200e-01   9.251e-02    -0.921    -1.034    -0.113     (0)  
Noma          2.150e-04
   NomaO-          2.126e-04   1.639e-04    -3.672    -3.785    -0.113     (0)  
   NomaOZn+        2.381e-06   1.836e-06    -5.623    -5.736    -0.113     (0)  
   NomaOH          2.102e-08   2.161e-08    -7.677    -7.665     0.012     (0)  
Nomb          3.560e-04
   NombO-          3.333e-04   2.569e-04    -3.477    -3.590    -0.113     (0)  
   NombOZn+        2.148e-05   1.656e-05    -4.668    -4.781    -0.113     (0)  
   NombOH          1.252e-06   1.288e-06    -5.902    -5.890     0.012     (0)  
Nomc          1.930e-04
   NomcO-          1.493e-04   1.151e-04    -3.826    -3.939    -0.113     (0)  
   NomcOH          4.161e-05   4.278e-05    -4.381    -4.369     0.012     (0)  
   NomcOZn+        2.058e-06   1.587e-06    -5.687    -5.800    -0.113     (0)  
Nomd          4.290e-04
   NomdOH          4.230e-04   4.349e-04    -3.374    -3.362     0.012     (0)  
   NomdO-          5.772e-06   4.450e-06    -5.239    -5.352    -0.113     (0)  
   NomdOZn+        2.695e-07   2.078e-07    -6.569    -6.682    -0.113     (0)  
O(0)          0.000e+00
   O2              0.000e+00   0.000e+00   -42.011   -41.999     0.012     (0)  
Zn            7.600e-05
   Zn+2            4.377e-05   1.546e-05    -4.359    -4.811    -0.452     (0)  
   NombOZn+        2.148e-05   1.656e-05    -4.668    -4.781    -0.113     (0)  
   ZnCl+           4.753e-06   3.593e-06    -5.323    -5.445    -0.122     (0)  
   NomaOZn+        2.381e-06   1.836e-06    -5.623    -5.736    -0.113     (0)  
   NomcOZn+        2.058e-06   1.587e-06    -5.687    -5.800    -0.113     (0)  
   ZnCl2           5.268e-07   5.268e-07    -6.278    -6.278     0.000     (0)  
   ZnOHCl          4.717e-07   4.717e-07    -6.326    -6.326     0.000     (0)  
   NomdOZn+        2.695e-07   2.078e-07    -6.569    -6.682    -0.113     (0)  
   ZnOH+           2.331e-07   1.550e-07    -6.633    -6.810    -0.177     (0)  
   ZnCl3-          5.121e-08   3.871e-08    -7.291    -7.412    -0.122     (0)  
   ZnCl4-2         5.058e-09   1.791e-09    -8.296    -8.747    -0.451     (0)  
   Zn(OH)2         2.464e-09   2.464e-09    -8.608    -8.608     0.000     (0)  
   Zn(OH)3-        1.862e-12   1.239e-12   -11.730   -11.907    -0.177     (0)  
   Zn(OH)4-2       2.524e-17   4.944e-18   -16.598   -17.306    -0.708     (0)  

------------------------------Saturation indices-------------------------------

  Phase               SI** log IAP   log K(298 K,   1 atm)

  fix_pH           -7.00     -7.00    0.00  H+
  Halite           -3.67     -2.07    1.60  NaCl
  O2(g)           -39.09     44.00   83.09  O2
  Zincite          -2.15      9.19   11.33  ZnO
  Zn(OH)2          -3.01      9.19   12.20  Zn(OH)2
  Zn(OH)2(am)      -3.29      9.19   12.47  Zn(OH)2
  Zn(OH)2(beta)    -2.57      9.19   11.75  Zn(OH)2
  Zn(OH)2(epsilon)  -2.35      9.19   11.53  Zn(OH)2
  Zn(OH)2(gamma)   -2.55      9.19   11.73  Zn(OH)2
  Zn2(OH)3Cl       -4.85     10.34   15.19  Zn2(OH)3Cl
  Zn5(OH)8Cl2      -8.64     29.86   38.50  Zn5(OH)8Cl2
  ZnCl2           -13.93     -6.88    7.05  ZnCl2
  Znmetal         -38.60    -12.81   25.79  Zn
  ZnO(active)      -2.00      9.19   11.19  ZnO

**For a gas, SI = log10(fugacity). Fugacity = pressure * phi / 1 atm.
  For ideal gases, phi = 1.

------------------
End of simulation.
------------------

------------------------------------
Reading input data for simulation 2.
------------------------------------

	USE SOLUTION 1
	USE SURFACE 1
	EQUILIBRIUM_PHASES 1
	CO2(g) -3.5 10
	fix_pH -4.5 HCl 10
	END
-----------------------------------------
Beginning of batch-reaction calculations.
-----------------------------------------

Reaction step 1.

Using solution 1.	
Using surface 1.	
Using pure phase assemblage 1.	

-------------------------------Phase assemblage--------------------------------

                                                      Moles in assemblage
Phase               SI  log IAP  log K(T, P)   Initial       Final       Delta

CO2(g)           -3.50   -21.65    -18.15    1.000e+01   1.000e+01  -1.097e-05
fix_pH           -4.50    -4.50      0.00
	 HCl                is reactant       1.000e+01   9.999e+00  -9.276e-04

------------------------------Surface composition------------------------------

Bacta         
	 -3.831e-04  Surface charge, eq
Bacta         
	  4.400e-04  moles
	                                   Mole                     Log
	Species               Moles    Fraction    Molality    Molality

	BactaO-           3.990e-04       0.907   3.990e-04      -3.399
	BactaOH           2.517e-05       0.057   2.517e-05      -4.599
	BactaOZn+         1.588e-05       0.036   1.588e-05      -4.799

Bactb         
	 -1.854e-04  Surface charge, eq
Bactb         
	  5.600e-04  moles
	                                   Mole                     Log
	Species               Moles    Fraction    Molality    Molality

	BactbOH           3.723e-04       0.665   3.723e-04      -3.429
	BactbO-           1.866e-04       0.333   1.866e-04      -3.729
	BactbOZn+         1.177e-06       0.002   1.177e-06      -5.929

Bactc         
	 -6.592e-07  Surface charge, eq
Bactc         
	  2.200e-04  moles
	                                   Mole                     Log
	Species               Moles    Fraction    Molality    Molality

	BactcOH           2.185e-04       0.993   2.185e-04      -3.661
	BactcO-           1.095e-06       0.005   1.095e-06      -5.961
	BactcOZn+         4.358e-07       0.002   4.358e-07      -6.361

Bactd         
	 -9.294e-09  Surface charge, eq
Bactd         
	  3.700e-04  moles
	                                   Mole                     Log
	Species               Moles    Fraction    Molality    Molality

	BactdOH           3.700e-04       1.000   3.700e-04      -3.432
	BactdO-           9.294e-09       0.000   9.294e-09      -8.032

-----------------------------Solution composition------------------------------

	Elements           Molality       Moles

	C                 1.097e-05   1.097e-05
	Cl                1.209e-01   1.209e-01
	Na                1.200e-01   1.200e-01
	Noma              2.150e-04   2.150e-04
	Nomb              3.560e-04   3.560e-04
	Nomc              1.930e-04   1.930e-04
	Nomd              4.290e-04   4.290e-04
	Zn                9.992e-05   9.992e-05

----------------------------Description of solution----------------------------

                                       pH  =   4.500      Charge balance
                                       pe  =   1.254      Adjusted to redox equilibrium
                        Activity of water  =   0.996
                 Ionic strength (mol/kgw)  =   1.208e-01
                       Mass of water (kg)  =   1.000e+00
                 Total alkalinity (eq/kg)  =   3.415e-04
                       Total CO2 (mol/kg)  =   1.097e-05
                         Temperature (°C)  =  25.00
                  Electrical balance (eq)  =  -1.069e-03
 Percent error, 100*(Cat-|An|)/(Cat+|An|)  =  -0.44
                               Iterations  =  12
                                  Total H  = 1.110145e+02
                                  Total O  = 5.550805e+01

----------------------------Distribution of species----------------------------

                                               Log       Log       Log    mole V
   Species          Molality    Activity  Molality  Activity     Gamma   cm³/mol

   H+              4.103e-05   3.162e-05    -4.387    -4.500    -0.113      0.00
   OH-             4.245e-10   3.171e-10    -9.372    -9.499    -0.127     (0)  
   H2O             5.551e+01   9.959e-01     1.744    -0.002     0.000     18.07
C(4)          1.097e-05
   H2CO3           1.077e-05   1.077e-05    -4.968    -4.968     0.000     (0)  
   HCO3-           1.949e-07   1.514e-07    -6.710    -6.820    -0.110     (0)  
   NaHCO3          7.876e-09   7.876e-09    -8.104    -8.104     0.000     (0)  
   ZnHCO3+         1.809e-10   1.202e-10    -9.743    -9.920    -0.177     (0)  
   CO3-2           6.360e-13   2.245e-13   -12.197   -12.649    -0.452     (0)  
   NaCO3-          4.977e-13   3.867e-13   -12.303   -12.413    -0.110     (0)  
   ZnCO3           3.244e-13   3.244e-13   -12.489   -12.489     0.000     (0)  
Cl            1.209e-01
   Cl-             1.209e-01   9.320e-02    -0.918    -1.031    -0.113     (0)  
   ZnCl+           7.780e-06   5.879e-06    -5.109    -5.231    -0.122     (0)  
   ZnCl2           8.684e-07   8.684e-07    -6.061    -6.061     0.000     (0)  
   ZnCl3-          8.508e-08   6.429e-08    -7.070    -7.192    -0.122     (0)  
   ZnCl4-2         8.472e-09   2.996e-09    -8.072    -8.523    -0.451     (0)  
   ZnOHCl          2.441e-09   2.441e-09    -8.612    -8.612     0.000     (0)  
H(0)          4.274e-15
   H2              2.137e-15   2.197e-15   -14.670   -14.658     0.012     (0)  
Na            1.200e-01
   Na+             1.200e-01   9.249e-02    -0.921    -1.034    -0.113     (0)  
   NaHCO3          7.876e-09   7.876e-09    -8.104    -8.104     0.000     (0)  
   NaCO3-          4.977e-13   3.867e-13   -12.303   -12.413    -0.110     (0)  
Noma          2.150e-04
   NomaO-          2.049e-04   1.579e-04    -3.689    -3.802    -0.113     (0)  
   NomaOH          6.402e-06   6.583e-06    -5.194    -5.182     0.012     (0)  
   NomaOZn+        3.727e-06   2.873e-06    -5.429    -5.542    -0.113     (0)  
Nomb          3.560e-04
   NombOH          1.845e-04   1.897e-04    -3.734    -3.722     0.012     (0)  
   NombO-          1.553e-04   1.197e-04    -3.809    -3.922    -0.113     (0)  
   NombOZn+        1.625e-05   1.253e-05    -4.789    -4.902    -0.113     (0)  
Nomc          1.930e-04
   NomcOH          1.908e-04   1.962e-04    -3.719    -3.707     0.012     (0)  
   NomcO-          2.166e-06   1.670e-06    -5.664    -5.777    -0.113     (0)  
   NomcOZn+        4.848e-08   3.737e-08    -7.314    -7.427    -0.113     (0)  
Nomd          4.290e-04
   NomdOH          4.290e-04   4.411e-04    -3.368    -3.355     0.012     (0)  
   NomdO-          1.852e-08   1.427e-08    -7.732    -7.845    -0.113     (0)  
   NomdOZn+        1.404e-09   1.082e-09    -8.853    -8.966    -0.113     (0)  
O(0)          0.000e+00
   O2              0.000e+00   0.000e+00   -62.995   -62.982     0.012     (0)  
Zn            9.992e-05
   Zn+2            7.114e-05   2.511e-05    -4.148    -4.600    -0.452     (0)  
   NombOZn+        1.625e-05   1.253e-05    -4.789    -4.902    -0.113     (0)  
   ZnCl+           7.780e-06   5.879e-06    -5.109    -5.231    -0.122     (0)  
   NomaOZn+        3.727e-06   2.873e-06    -5.429    -5.542    -0.113     (0)  
   ZnCl2           8.684e-07   8.684e-07    -6.061    -6.061     0.000     (0)  
   ZnCl3-          8.508e-08   6.429e-08    -7.070    -7.192    -0.122     (0)  
   NomcOZn+        4.848e-08   3.737e-08    -7.314    -7.427    -0.113     (0)  
   ZnCl4-2         8.472e-09   2.996e-09    -8.072    -8.523    -0.451     (0)  
   ZnOHCl          2.441e-09   2.441e-09    -8.612    -8.612     0.000     (0)  
   NomdOZn+        1.404e-09   1.082e-09    -8.853    -8.966    -0.113     (0)  
   ZnOH+           1.198e-09   7.963e-10    -8.922    -9.099    -0.177     (0)  
   ZnHCO3+         1.809e-10   1.202e-10    -9.743    -9.920    -0.177     (0)  
   ZnCO3           3.244e-13   3.244e-13   -12.489   -12.489     0.000     (0)  
   Zn(OH)2         4.002e-14   4.002e-14   -13.398   -13.398     0.000     (0)  
   Zn(OH)3-        9.567e-20   6.361e-20   -19.019   -19.197    -0.177     (0)  
   Zn(OH)4-2       4.110e-27   8.030e-28   -26.386   -27.095    -0.709     (0)  

------------------------------Saturation indices-------------------------------

  Phase               SI** log IAP   log K(298 K,   1 atm)

  CH4(g)          -26.63    -67.68  -41.05  CH4
  CO2(g)           -3.50    -21.65  -18.15  CO2
  fix_pH           -4.50     -4.50    0.00  H+
  Halite           -3.67     -2.06    1.60  NaCl
  Natron          -13.42    -14.73   -1.31  Na2CO3:10H2O
  O2(g)           -60.08     23.01   83.09  O2
  Smithsonite      -7.25    -17.25  -10.00  ZnCO3
  Thermonatrite   -15.36    -14.72    0.64  Na2CO3:H2O
  Zincite          -6.94      4.40   11.33  ZnO
  Zn(OH)2          -7.80      4.40   12.20  Zn(OH)2
  Zn(OH)2(am)      -8.08      4.40   12.47  Zn(OH)2
  Zn(OH)2(beta)    -7.36      4.40   11.75  Zn(OH)2
  Zn(OH)2(epsilon)  -7.14      4.40   11.53  Zn(OH)2
  Zn(OH)2(gamma)   -7.34      4.40   11.73  Zn(OH)2
  Zn2(OH)3Cl      -11.93      3.26   15.19  Zn2(OH)3Cl
  Zn5(OH)8Cl2     -27.58     10.92   38.50  Zn5(OH)8Cl2
  ZnCl2           -13.71     -6.66    7.05  ZnCl2
  ZnCO3:1H2O       -6.99    -17.25  -10.26  ZnCO3:1H2O
  Znmetal         -32.90     -7.11   25.79  Zn
  ZnO(active)      -6.79      4.40   11.19  ZnO

**For a gas, SI = log10(fugacity). Fugacity = pressure * phi / 1 atm.
  For ideal gases, phi = 1.

------------------
End of simulation.
------------------

------------------------------------
Reading input data for simulation 3.
------------------------------------

	USE SOLUTION 1
	USE SURFACE 1
	EQUILIBRIUM_PHASES 1
	CO2(g) -3.5 10
	fix_pH -5.0 HCl 10
	END
-----------------------------------------
Beginning of batch-reaction calculations.
-----------------------------------------

Reaction step 1.

Using solution 1.	
Using surface 1.	
Using pure phase assemblage 1.	

-------------------------------Phase assemblage--------------------------------

                                                      Moles in assemblage
Phase               SI  log IAP  log K(T, P)   Initial       Final       Delta

CO2(g)           -3.50   -21.65    -18.15    1.000e+01   1.000e+01  -1.141e-05
fix_pH           -5.00    -5.00      0.00
	 HCl                is reactant       1.000e+01   9.999e+00  -6.202e-04

------------------------------Surface composition------------------------------

Bacta         
	 -4.016e-04  Surface charge, eq
Bacta         
	  4.400e-04  moles
	                                   Mole                     Log
	Species               Moles    Fraction    Molality    Molality

	BactaO-           4.166e-04       0.947   4.166e-04      -3.380
	BactaOZn+         1.506e-05       0.034   1.506e-05      -4.822
	BactaOH           8.313e-06       0.019   8.313e-06      -5.080

Bactb         
	 -3.402e-04  Surface charge, eq
Bactb         
	  5.600e-04  moles
	                                   Mole                     Log
	Species               Moles    Fraction    Molality    Molality

	BactbO-           3.422e-04       0.611   3.422e-04      -3.466
	BactbOH           2.159e-04       0.386   2.159e-04      -3.666
	BactbOZn+         1.961e-06       0.004   1.961e-06      -5.708

Bactc         
	 -2.179e-06  Surface charge, eq
Bactc         
	  2.200e-04  moles
	                                   Mole                     Log
	Species               Moles    Fraction    Molality    Molality

	BactcOH           2.154e-04       0.979   2.154e-04      -3.667
	BactcO-           3.413e-06       0.016   3.413e-06      -5.467
	BactcOZn+         1.234e-06       0.006   1.234e-06      -5.909

Bactd         
	 -2.939e-08  Surface charge, eq
Bactd         
	  3.700e-04  moles
	                                   Mole                     Log
	Species               Moles    Fraction    Molality    Molality

	BactdOH           3.700e-04       1.000   3.700e-04      -3.432
	BactdO-           2.939e-08       0.000   2.939e-08      -7.532

-----------------------------Solution composition------------------------------

	Elements           Molality       Moles

	C                 1.141e-05   1.141e-05
	Cl                1.206e-01   1.206e-01
	Na                1.200e-01   1.200e-01
	Noma              2.150e-04   2.150e-04
	Nomb              3.560e-04   3.560e-04
	Nomc              1.930e-04   1.930e-04
	Nomd              4.290e-04   4.290e-04
	Zn                9.916e-05   9.916e-05

----------------------------Description of solution----------------------------

                                       pH  =   5.000      Charge balance
                                       pe  =   0.756      Adjusted to redox equilibrium
                        Activity of water  =   0.996
                 Ionic strength (mol/kgw)  =   1.207e-01
                       Mass of water (kg)  =   1.000e+00
                 Total alkalinity (eq/kg)  =   4.725e-04
                       Total CO2 (mol/kg)  =   1.141e-05
                         Temperature (°C)  =  25.00
                  Electrical balance (eq)  =  -8.944e-04
 Percent error, 100*(Cat-|An|)/(Cat+|An|)  =  -0.37
                               Iterations  =  12
                                  Total H  = 1.110144e+02
                                  Total O  = 5.550805e+01

----------------------------Distribution of species----------------------------

                                               Log       Log       Log    mole V
   Species          Molality    Activity  Molality  Activity     Gamma   cm³/mol

   H+              1.297e-05   1.000e-05    -4.887    -5.000    -0.113      0.00
   OH-             1.342e-09   1.003e-09    -8.872    -8.999    -0.127     (0)  
   H2O             5.551e+01   9.959e-01     1.744    -0.002     0.000     18.07
C(4)          1.141e-05
   H2CO3           1.077e-05   1.077e-05    -4.968    -4.968     0.000     (0)  
   HCO3-           6.164e-07   4.789e-07    -6.210    -6.320    -0.110     (0)  
   NaHCO3          2.491e-08   2.491e-08    -7.604    -7.604     0.000     (0)  
   ZnHCO3+         5.194e-10   3.454e-10    -9.284    -9.462    -0.177     (0)  
   CO3-2           6.358e-12   2.245e-12   -11.197   -11.649    -0.452     (0)  
   NaCO3-          4.977e-12   3.867e-12   -11.303   -11.413    -0.110     (0)  
   ZnCO3           2.947e-12   2.947e-12   -11.531   -11.531     0.000     (0)  
Cl            1.206e-01
   Cl-             1.206e-01   9.297e-02    -0.919    -1.032    -0.113     (0)  
   ZnCl+           7.049e-06   5.327e-06    -5.152    -5.273    -0.122     (0)  
   ZnCl2           7.850e-07   7.850e-07    -6.105    -6.105     0.000     (0)  
   ZnCl3-          7.671e-08   5.797e-08    -7.115    -7.237    -0.122     (0)  
   ZnCl4-2         7.618e-09   2.695e-09    -8.118    -8.569    -0.451     (0)  
   ZnOHCl          6.994e-09   6.994e-09    -8.155    -8.155     0.000     (0)  
H(0)          4.241e-15
   H2              2.120e-15   2.180e-15   -14.674   -14.662     0.012     (0)  
Na            1.200e-01
   Na+             1.200e-01   9.250e-02    -0.921    -1.034    -0.113     (0)  
   NaHCO3          2.491e-08   2.491e-08    -7.604    -7.604     0.000     (0)  
   NaCO3-          4.977e-12   3.867e-12   -11.303   -11.413    -0.110     (0)  
Noma          2.150e-04
   NomaO-          2.095e-04   1.615e-04    -3.679    -3.792    -0.113     (0)  
   NomaOZn+        3.462e-06   2.668e-06    -5.461    -5.574    -0.113     (0)  
   NomaOH          2.070e-06   2.129e-06    -5.684    -5.672     0.012     (0)  
Nomb          3.560e-04
   NombO-          2.420e-04   1.866e-04    -3.616    -3.729    -0.113     (0)  
   NombOH          9.095e-05   9.351e-05    -4.041    -4.029     0.012     (0)  
   NombOZn+        2.302e-05   1.774e-05    -4.638    -4.751    -0.113     (0)  
Nomc          1.930e-04
   NomcOH          1.862e-04   1.914e-04    -3.730    -3.718     0.012     (0)  
   NomcO-          6.684e-06   5.152e-06    -5.175    -5.288    -0.113     (0)  
   NomcOZn+        1.359e-07   1.047e-07    -6.867    -6.980    -0.113     (0)  
Nomd          4.290e-04
   NomdOH          4.289e-04   4.410e-04    -3.368    -3.356     0.012     (0)  
   NomdO-          5.855e-08   4.513e-08    -7.233    -7.346    -0.113     (0)  
   NomdOZn+        4.033e-09   3.109e-09    -8.394    -8.507    -0.113     (0)  
O(0)          0.000e+00
   O2              0.000e+00   0.000e+00   -62.988   -62.976     0.012     (0)  
Zn            9.916e-05
   Zn+2            6.461e-05   2.281e-05    -4.190    -4.642    -0.452     (0)  
   NombOZn+        2.302e-05   1.774e-05    -4.638    -4.751    -0.113     (0)  
   ZnCl+           7.049e-06   5.327e-06    -5.152    -5.273    -0.122     (0)  
   NomaOZn+        3.462e-06   2.668e-06    -5.461    -5.574    -0.113     (0)  
   ZnCl2           7.850e-07   7.850e-07    -6.105    -6.105     0.000     (0)  
   NomcOZn+        1.359e-07   1.047e-07    -6.867    -6.980    -0.113     (0)  
   ZnCl3-          7.671e-08   5.797e-08    -7.115    -7.237    -0.122     (0)  
   ZnCl4-2         7.618e-09   2.695e-09    -8.118    -8.569    -0.451     (0)  
   ZnOHCl          6.994e-09   6.994e-09    -8.155    -8.155     0.000     (0)  
   NomdOZn+        4.033e-09   3.109e-09    -8.394    -8.507    -0.113     (0)  
   ZnOH+           3.440e-09   2.287e-09    -8.463    -8.641    -0.177     (0)  
   ZnHCO3+         5.194e-10   3.454e-10    -9.284    -9.462    -0.177     (0)  
   ZnCO3           2.947e-12   2.947e-12   -11.531   -11.531     0.000     (0)  
   Zn(OH)2         3.636e-13   3.636e-13   -12.439   -12.439     0.000     (0)  
   Zn(OH)3-        2.748e-18   1.827e-18   -17.561   -17.738    -0.177     (0)  
   Zn(OH)4-2       3.730e-25   7.294e-26   -24.428   -25.137    -0.709     (0)  

------------------------------Saturation indices-------------------------------

  Phase               SI** log IAP   log K(298 K,   1 atm)

  CH4(g)          -26.64    -67.69  -41.05  CH4
  CO2(g)           -3.50    -21.65  -18.15  CO2
  fix_pH           -5.00     -5.00    0.00  H+
  Halite           -3.67     -2.07    1.60  NaCl
  Natron          -12.42    -13.73   -1.31  Na2CO3:10H2O
  O2(g)           -60.07     23.02   83.09  O2
  Smithsonite      -6.29    -16.29  -10.00  ZnCO3
  Thermonatrite   -14.36    -13.72    0.64  Na2CO3:H2O
  Zincite          -5.98      5.36   11.33  ZnO
  Zn(OH)2          -6.85      5.35   12.20  Zn(OH)2
  Zn(OH)2(am)      -7.12      5.35   12.47  Zn(OH)2
  Zn(OH)2(beta)    -6.40      5.35   11.75  Zn(OH)2
  Zn(OH)2(epsilon)  -6.18      5.35   11.53  Zn(OH)2
  Zn(OH)2(gamma)   -6.38      5.35   11.73  Zn(OH)2
  Zn2(OH)3Cl      -10.51      4.68   15.19  Zn2(OH)3Cl
  Zn5(OH)8Cl2     -23.79     14.71   38.50  Zn5(OH)8Cl2
  ZnCl2           -13.76     -6.71    7.05  ZnCl2
  ZnCO3:1H2O       -6.03    -16.29  -10.26  ZnCO3:1H2O
  Znmetal         -31.94     -6.15   25.79  Zn
  ZnO(active)      -5.83      5.36   11.19  ZnO

**For a gas, SI = log10(fugacity). Fugacity = pressure * phi / 1 atm.
  For ideal gases, phi = 1.

------------------
End of simulation.
------------------

------------------------------------
Reading input data for simulation 4.
------------------------------------

	USE SOLUTION 1
	USE SURFACE 1
	EQUILIBRIUM_PHASES 1
	CO2(g) -3.5 10
	fix_pH -5.5 HCl 10
	END
-----------------------------------------
Beginning of batch-reaction calculations.
-----------------------------------------

Reaction step 1.

Using solution 1.	
Using surface 1.	
Using pure phase assemblage 1.	

-------------------------------Phase assemblage--------------------------------

                                                      Moles in assemblage
Phase               SI  log IAP  log K(T, P)   Initial       Final       Delta

CO2(g)           -3.50   -21.65    -18.15    1.000e+01   1.000e+01  -1.280e-05
fix_pH           -5.50    -5.50      0.00
	 HCl                is reactant       1.000e+01   1.000e+01  -4.012e-04

------------------------------Surface composition------------------------------

Bacta         
	 -4.089e-04  Surface charge, eq
Bacta         
	  4.400e-04  moles
	                                   Mole                     Log
	Species               Moles    Fraction    Molality    Molality

	BactaO-           4.231e-04       0.962   4.231e-04      -3.374
	BactaOZn+         1.423e-05       0.032   1.423e-05      -4.847
	BactaOH           2.670e-06       0.006   2.670e-06      -5.574

Bactb         
	 -4.623e-04  Surface charge, eq
Bactb         
	  5.600e-04  moles
	                                   Mole                     Log
	Species               Moles    Fraction    Molality    Molality

	BactbO-           4.648e-04       0.830   4.648e-04      -3.333
	BactbOH           9.274e-05       0.166   9.274e-05      -4.033
	BactbOZn+         2.478e-06       0.004   2.478e-06      -5.606

Bactc         
	 -6.857e-06  Surface charge, eq
Bactc         
	  2.200e-04  moles
	                                   Mole                     Log
	Species               Moles    Fraction    Molality    Molality

	BactcOH           2.062e-04       0.937   2.062e-04      -3.686
	BactcO-           1.033e-05       0.047   1.033e-05      -4.986
	BactcOZn+         3.477e-06       0.016   3.477e-06      -5.459

Bactd         
	 -9.292e-08  Surface charge, eq
Bactd         
	  3.700e-04  moles
	                                   Mole                     Log
	Species               Moles    Fraction    Molality    Molality

	BactdOH           3.699e-04       1.000   3.699e-04      -3.432
	BactdO-           9.292e-08       0.000   9.292e-08      -7.032

-----------------------------Solution composition------------------------------

	Elements           Molality       Moles

	C                 1.280e-05   1.280e-05
	Cl                1.204e-01   1.204e-01
	Na                1.200e-01   1.200e-01
	Noma              2.150e-04   2.150e-04
	Nomb              3.560e-04   3.560e-04
	Nomc              1.930e-04   1.930e-04
	Nomd              4.290e-04   4.290e-04
	Zn                9.722e-05   9.722e-05

----------------------------Description of solution----------------------------

                                       pH  =   5.500      Charge balance
                                       pe  =   0.254      Adjusted to redox equilibrium
                        Activity of water  =   0.996
                 Ionic strength (mol/kgw)  =   1.206e-01
                       Mass of water (kg)  =   1.000e+00
                 Total alkalinity (eq/kg)  =   5.535e-04
                       Total CO2 (mol/kg)  =   1.280e-05
                         Temperature (°C)  =  25.00
                  Electrical balance (eq)  =  -7.603e-04
 Percent error, 100*(Cat-|An|)/(Cat+|An|)  =  -0.32
                               Iterations  =  12
                                  Total H  = 1.110143e+02
                                  Total O  = 5.550805e+01

----------------------------Distribution of species----------------------------

                                               Log       Log       Log    mole V
   Species          Molality    Activity  Molality  Activity     Gamma   cm³/mol

   H+              4.102e-06   3.162e-06    -5.387    -5.500    -0.113      0.00
   OH-             4.244e-09   3.171e-09    -8.372    -8.499    -0.127     (0)  
   H2O             5.551e+01   9.959e-01     1.744    -0.002     0.000     18.07
C(4)          1.280e-05
   H2CO3           1.077e-05   1.077e-05    -4.968    -4.968     0.000     (0)  
   HCO3-           1.949e-06   1.514e-06    -5.710    -5.820    -0.110     (0)  
   NaHCO3          7.877e-08   7.877e-08    -7.104    -7.104     0.000     (0)  
   ZnHCO3+         1.528e-09   1.017e-09    -8.816    -8.993    -0.177     (0)  
   CO3-2           6.357e-11   2.245e-11   -10.197   -10.649    -0.452     (0)  
   NaCO3-          4.977e-11   3.867e-11   -10.303   -10.413    -0.110     (0)  
   ZnCO3           2.742e-11   2.742e-11   -10.562   -10.562     0.000     (0)  
Cl            1.204e-01
   Cl-             1.204e-01   9.281e-02    -0.919    -1.032    -0.113     (0)  
   ZnCl+           6.548e-06   4.949e-06    -5.184    -5.305    -0.122     (0)  
   ZnCl2           7.279e-07   7.279e-07    -6.138    -6.138     0.000     (0)  
   ZnCl3-          7.101e-08   5.366e-08    -7.149    -7.270    -0.122     (0)  
   ZnOHCl          2.055e-08   2.055e-08    -7.687    -7.687     0.000     (0)  
   ZnCl4-2         7.038e-09   2.490e-09    -8.153    -8.604    -0.451     (0)  
H(0)          4.273e-15
   H2              2.136e-15   2.197e-15   -14.670   -14.658     0.012     (0)  
Na            1.200e-01
   Na+             1.200e-01   9.251e-02    -0.921    -1.034    -0.113     (0)  
   NaHCO3          7.877e-08   7.877e-08    -7.104    -7.104     0.000     (0)  
   NaCO3-          4.977e-11   3.867e-11   -10.303   -10.413    -0.110     (0)  
Noma          2.150e-04
   NomaO-          2.111e-04   1.627e-04    -3.676    -3.789    -0.113     (0)  
   NomaOZn+        3.246e-06   2.503e-06    -5.489    -5.602    -0.113     (0)  
   NomaOH          6.598e-07   6.784e-07    -6.181    -6.169     0.012     (0)  
Nomb          3.560e-04
   NombO-          2.949e-04   2.273e-04    -3.530    -3.643    -0.113     (0)  
   NombOH          3.504e-05   3.603e-05    -4.455    -4.443     0.012     (0)  
   NombOZn+        2.609e-05   2.012e-05    -4.583    -4.696    -0.113     (0)  
Nomc          1.930e-04
   NomcOH          1.730e-04   1.779e-04    -3.762    -3.750     0.012     (0)  
   NomcO-          1.964e-05   1.514e-05    -4.707    -4.820    -0.113     (0)  
   NomcOZn+        3.715e-07   2.864e-07    -6.430    -6.543    -0.113     (0)  
Nomd          4.290e-04
   NomdOH          4.288e-04   4.409e-04    -3.368    -3.356     0.012     (0)  
   NomdO-          1.851e-07   1.427e-07    -6.733    -6.846    -0.113     (0)  
   NomdOZn+        1.186e-08   9.146e-09    -7.926    -8.039    -0.113     (0)  
O(0)          0.000e+00
   O2              0.000e+00   0.000e+00   -62.994   -62.982     0.012     (0)  
Zn            9.722e-05
   Zn+2            6.011e-05   2.123e-05    -4.221    -4.673    -0.452     (0)  
   NombOZn+        2.609e-05   2.012e-05    -4.583    -4.696    -0.113     (0)  
   ZnCl+           6.548e-06   4.949e-06    -5.184    -5.305    -0.122     (0)  
   NomaOZn+        3.246e-06   2.503e-06    -5.489    -5.602    -0.113     (0)  
   ZnCl2           7.279e-07   7.279e-07    -6.138    -6.138     0.000     (0)  
   NomcOZn+        3.715e-07   2.864e-07    -6.430    -6.543    -0.113     (0)  
   ZnCl3-          7.101e-08   5.366e-08    -7.149    -7.270    -0.122     (0)  
   ZnOHCl          2.055e-08   2.055e-08    -7.687    -7.687     0.000     (0)  
   NomdOZn+        1.186e-08   9.146e-09    -7.926    -8.039    -0.113     (0)  
   ZnOH+           1.012e-08   6.732e-09    -7.995    -8.172    -0.177     (0)  
   ZnCl4-2         7.038e-09   2.490e-09    -8.153    -8.604    -0.451     (0)  
   ZnHCO3+         1.528e-09   1.017e-09    -8.816    -8.993    -0.177     (0)  
   ZnCO3           2.742e-11   2.742e-11   -10.562   -10.562     0.000     (0)  
   Zn(OH)2         3.383e-12   3.383e-12   -11.471   -11.471     0.000     (0)  
   Zn(OH)3-        8.085e-17   5.377e-17   -16.092   -16.269    -0.177     (0)  
   Zn(OH)4-2       3.469e-23   6.788e-24   -22.460   -23.168    -0.708     (0)  

------------------------------Saturation indices-------------------------------

  Phase               SI** log IAP   log K(298 K,   1 atm)

  CH4(g)          -26.63    -67.68  -41.05  CH4
  CO2(g)           -3.50    -21.65  -18.15  CO2
  fix_pH           -5.50     -5.50    0.00  H+
  Halite           -3.67     -2.07    1.60  NaCl
  Natron          -11.42    -12.73   -1.31  Na2CO3:10H2O
  O2(g)           -60.08     23.01   83.09  O2
  Smithsonite      -5.32    -15.32  -10.00  ZnCO3
  Thermonatrite   -13.36    -12.72    0.64  Na2CO3:H2O
  Zincite          -5.01      6.33   11.33  ZnO
  Zn(OH)2          -5.88      6.32   12.20  Zn(OH)2
  Zn(OH)2(am)      -6.15      6.32   12.47  Zn(OH)2
  Zn(OH)2(beta)    -5.43      6.32   11.75  Zn(OH)2
  Zn(OH)2(epsilon)  -5.21      6.32   11.53  Zn(OH)2
  Zn(OH)2(gamma)   -5.41      6.32   11.73  Zn(OH)2
  Zn2(OH)3Cl       -9.07      6.12   15.19  Zn2(OH)3Cl
  Zn5(OH)8Cl2     -19.94     18.56   38.50  Zn5(OH)8Cl2
  ZnCl2           -13.79     -6.74    7.05  ZnCl2
  ZnCO3:1H2O       -5.06    -15.32  -10.26  ZnCO3:1H2O
  Znmetal         -30.97     -5.18   25.79  Zn
  ZnO(active)      -4.86      6.33   11.19  ZnO

**For a gas, SI = log10(fugacity). Fugacity = pressure * phi / 1 atm.
  For ideal gases, phi = 1.

------------------
End of simulation.
------------------

------------------------------------
Reading input data for simulation 5.
------------------------------------

	USE SOLUTION 1
	USE SURFACE 1
	EQUILIBRIUM_PHASES 1
	CO2(g) -3.5 10
	fix_pH -6.0 NaOH 10
	END
-----------------------------------------
Beginning of batch-reaction calculations.
-----------------------------------------

Reaction step 1.

Using solution 1.	
Using surface 1.	
Using pure phase assemblage 1.	

-------------------------------Phase assemblage--------------------------------

                                                      Moles in assemblage
Phase               SI  log IAP  log K(T, P)   Initial       Final       Delta

CO2(g)           -3.50   -21.65    -18.15    1.000e+01   1.000e+01  -1.719e-05
fix_pH           -6.00    -6.00      0.00
	 NaOH               is reactant       1.000e+01   1.000e+01   2.527e-04

------------------------------Surface composition------------------------------

Bacta         
	 -4.126e-04  Surface charge, eq
Bacta         
	  4.400e-04  moles
	                                   Mole                     Log
	Species               Moles    Fraction    Molality    Molality

	BactaO-           4.259e-04       0.968   4.259e-04      -3.371
	BactaOZn+         1.328e-05       0.030   1.328e-05      -4.877
	BactaOH           8.497e-07       0.002   8.497e-07      -6.071

Bactb         
	 -5.217e-04  Surface charge, eq
Bactb         
	  5.600e-04  moles
	                                   Mole                     Log
	Species               Moles    Fraction    Molality    Molality

	BactbO-           5.243e-04       0.936   5.243e-04      -3.280
	BactbOH           3.308e-05       0.059   3.308e-05      -4.480
	BactbOZn+         2.590e-06       0.005   2.590e-06      -5.587

Bactc         
	 -1.987e-05  Surface charge, eq
Bactc         
	  2.200e-04  moles
	                                   Mole                     Log
	Species               Moles    Fraction    Molality    Molality

	BactcOH           1.821e-04       0.828   1.821e-04      -3.740
	BactcO-           2.887e-05       0.131   2.887e-05      -4.540
	BactcOZn+         8.998e-06       0.041   8.998e-06      -5.046

Bactd         
	 -2.937e-07  Surface charge, eq
Bactd         
	  3.700e-04  moles
	                                   Mole                     Log
	Species               Moles    Fraction    Molality    Molality

	BactdOH           3.697e-04       0.999   3.697e-04      -3.432
	BactdO-           2.937e-07       0.001   2.937e-07      -6.532

-----------------------------Solution composition------------------------------

	Elements           Molality       Moles

	C                 1.719e-05   1.719e-05
	Cl                1.200e-01   1.200e-01
	Na                1.197e-01   1.197e-01
	Noma              2.150e-04   2.150e-04
	Nomb              3.560e-04   3.560e-04
	Nomc              1.930e-04   1.930e-04
	Nomd              4.290e-04   4.290e-04
	Zn                9.255e-05   9.255e-05

----------------------------Description of solution----------------------------

                                       pH  =   6.000      Charge balance
                                       pe  =  -0.248      Adjusted to redox equilibrium
                        Activity of water  =   0.996
                 Ionic strength (mol/kgw)  =   1.203e-01
                       Mass of water (kg)  =   1.000e+00
                 Total alkalinity (eq/kg)  =   6.163e-04
                       Total CO2 (mol/kg)  =   1.719e-05
                         Temperature (°C)  =  25.00
                  Electrical balance (eq)  =  -6.839e-04
 Percent error, 100*(Cat-|An|)/(Cat+|An|)  =  -0.28
                               Iterations  =  12
                                  Total H  = 1.110137e+02
                                  Total O  = 5.550781e+01

----------------------------Distribution of species----------------------------

                                               Log       Log       Log    mole V
   Species          Molality    Activity  Molality  Activity     Gamma   cm³/mol

   H+              1.297e-06   1.000e-06    -5.887    -6.000    -0.113      0.00
   OH-             1.342e-08   1.003e-08    -7.872    -7.999    -0.126     (0)  
   H2O             5.551e+01   9.959e-01     1.744    -0.002     0.000     18.07
C(4)          1.719e-05
   H2CO3           1.077e-05   1.077e-05    -4.968    -4.968     0.000     (0)  
   HCO3-           6.162e-06   4.789e-06    -5.210    -5.320    -0.110     (0)  
   NaHCO3          2.486e-07   2.486e-07    -6.604    -6.604     0.000     (0)  
   ZnHCO3+         4.476e-09   2.978e-09    -8.349    -8.526    -0.177     (0)  
   CO3-2           6.353e-10   2.245e-10    -9.197    -9.649    -0.452     (0)  
   NaCO3-          4.967e-10   3.860e-10    -9.304    -9.413    -0.110     (0)  
   ZnCO3           2.541e-10   2.541e-10    -9.595    -9.595     0.000     (0)  
Cl            1.200e-01
   Cl-             1.200e-01   9.252e-02    -0.921    -1.034    -0.113     (0)  
   ZnCl+           6.046e-06   4.571e-06    -5.219    -5.340    -0.122     (0)  
   ZnCl2           6.702e-07   6.702e-07    -6.174    -6.174     0.000     (0)  
   ZnCl3-          6.515e-08   4.925e-08    -7.186    -7.308    -0.122     (0)  
   ZnOHCl          6.001e-08   6.001e-08    -7.222    -7.222     0.000     (0)  
   ZnCl4-2         6.433e-09   2.278e-09    -8.192    -8.642    -0.451     (0)  
H(0)          4.311e-15
   H2              2.156e-15   2.216e-15   -14.666   -14.654     0.012     (0)  
Na            1.197e-01
   Na+             1.197e-01   9.233e-02    -0.922    -1.035    -0.113     (0)  
   NaHCO3          2.486e-07   2.486e-07    -6.604    -6.604     0.000     (0)  
   NaCO3-          4.967e-10   3.860e-10    -9.304    -9.413    -0.110     (0)  
Noma          2.150e-04
   NomaO-          2.118e-04   1.633e-04    -3.674    -3.787    -0.113     (0)  
   NomaOZn+        3.017e-06   2.326e-06    -5.520    -5.633    -0.113     (0)  
   NomaOH          2.094e-07   2.152e-07    -6.679    -6.667     0.012     (0)  
Nomb          3.560e-04
   NombO-          3.180e-04   2.452e-04    -3.498    -3.611    -0.113     (0)  
   NombOZn+        2.607e-05   2.010e-05    -4.584    -4.697    -0.113     (0)  
   NombOH          1.195e-05   1.229e-05    -4.923    -4.911     0.012     (0)  
Nomc          1.930e-04
   NomcOH          1.414e-04   1.453e-04    -3.850    -3.838     0.012     (0)  
   NomcO-          5.074e-05   3.912e-05    -4.295    -4.408    -0.113     (0)  
   NomcOZn+        8.894e-07   6.857e-07    -6.051    -6.164    -0.113     (0)  
Nomd          4.290e-04
   NomdOH          4.284e-04   4.404e-04    -3.368    -3.356     0.012     (0)  
   NomdO-          5.845e-07   4.507e-07    -6.233    -6.346    -0.113     (0)  
   NomdOZn+        3.472e-08   2.677e-08    -7.459    -7.572    -0.113     (0)  
O(0)          0.000e+00
   O2              0.000e+00   0.000e+00   -63.002   -62.990     0.012     (0)  
Zn            9.255e-05
   Zn+2            5.565e-05   1.967e-05    -4.255    -4.706    -0.452     (0)  
   NombOZn+        2.607e-05   2.010e-05    -4.584    -4.697    -0.113     (0)  
   ZnCl+           6.046e-06   4.571e-06    -5.219    -5.340    -0.122     (0)  
   NomaOZn+        3.017e-06   2.326e-06    -5.520    -5.633    -0.113     (0)  
   NomcOZn+        8.894e-07   6.857e-07    -6.051    -6.164    -0.113     (0)  
   ZnCl2           6.702e-07   6.702e-07    -6.174    -6.174     0.000     (0)  
   ZnCl3-          6.515e-08   4.925e-08    -7.186    -7.308    -0.122     (0)  
   ZnOHCl          6.001e-08   6.001e-08    -7.222    -7.222     0.000     (0)  
   NomdOZn+        3.472e-08   2.677e-08    -7.459    -7.572    -0.113     (0)  
   ZnOH+           2.964e-08   1.972e-08    -7.528    -7.705    -0.177     (0)  
   ZnCl4-2         6.433e-09   2.278e-09    -8.192    -8.642    -0.451     (0)  
   ZnHCO3+         4.476e-09   2.978e-09    -8.349    -8.526    -0.177     (0)  
   ZnCO3           2.541e-10   2.541e-10    -9.595    -9.595     0.000     (0)  
   Zn(OH)2         3.135e-11   3.135e-11   -10.504   -10.504     0.000     (0)  
   Zn(OH)3-        2.368e-15   1.575e-15   -14.626   -14.803    -0.177     (0)  
   Zn(OH)4-2       3.208e-21   6.290e-22   -20.494   -21.201    -0.708     (0)  

------------------------------Saturation indices-------------------------------

  Phase               SI** log IAP   log K(298 K,   1 atm)

  CH4(g)          -26.62    -67.66  -41.05  CH4
  CO2(g)           -3.50    -21.65  -18.15  CO2
  fix_pH           -6.00     -6.00    0.00  H+
  Halite           -3.67     -2.07    1.60  NaCl
  Natron          -10.42    -11.74   -1.31  Na2CO3:10H2O
  O2(g)           -60.08     23.01   83.09  O2
  Smithsonite      -4.36    -14.36  -10.00  ZnCO3
  Thermonatrite   -12.36    -11.72    0.64  Na2CO3:H2O
  Zincite          -4.04      7.29   11.33  ZnO
  Zn(OH)2          -4.91      7.29   12.20  Zn(OH)2
  Zn(OH)2(am)      -5.18      7.29   12.47  Zn(OH)2
  Zn(OH)2(beta)    -4.46      7.29   11.75  Zn(OH)2
  Zn(OH)2(epsilon)  -4.24      7.29   11.53  Zn(OH)2
  Zn(OH)2(gamma)   -4.44      7.29   11.73  Zn(OH)2
  Zn2(OH)3Cl       -7.64      7.55   15.19  Zn2(OH)3Cl
  Zn5(OH)8Cl2     -16.11     22.39   38.50  Zn5(OH)8Cl2
  ZnCl2           -13.82     -6.77    7.05  ZnCl2
  ZnCO3:1H2O       -4.10    -14.36  -10.26  ZnCO3:1H2O
  Znmetal         -30.00     -4.21   25.79  Zn
  ZnO(active)      -3.90      7.29   11.19  ZnO

**For a gas, SI = log10(fugacity). Fugacity = pressure * phi / 1 atm.
  For ideal gases, phi = 1.

------------------
End of simulation.
------------------

------------------------------------
Reading input data for simulation 6.
------------------------------------

	USE SOLUTION 1
	USE SURFACE 1
	EQUILIBRIUM_PHASES 1
	CO2(g) -3.5 10
	fix_pH -6.5 NaOH 10
	END
-----------------------------------------
Beginning of batch-reaction calculations.
-----------------------------------------

Reaction step 1.

Using solution 1.	
Using surface 1.	
Using pure phase assemblage 1.	

-------------------------------Phase assemblage--------------------------------

                                                      Moles in assemblage
Phase               SI  log IAP  log K(T, P)   Initial       Final       Delta

CO2(g)           -3.50   -21.65    -18.15    1.000e+01   1.000e+01  -3.107e-05
fix_pH           -6.50    -6.50      0.00
	 NaOH               is reactant       1.000e+01   1.000e+01   1.050e-04

------------------------------Surface composition------------------------------

Bacta         
	 -4.159e-04  Surface charge, eq
Bacta         
	  4.400e-04  moles
	                                   Mole                     Log
	Species               Moles    Fraction    Molality    Molality

	BactaO-           4.278e-04       0.972   4.278e-04      -3.369
	BactaOZn+         1.190e-05       0.027   1.190e-05      -4.924
	BactaOH           2.699e-07       0.001   2.699e-07      -6.569

Bactb         
	 -5.443e-04  Surface charge, eq
Bactb         
	  5.600e-04  moles
	                                   Mole                     Log
	Species               Moles    Fraction    Molality    Molality

	BactbO-           5.467e-04       0.976   5.467e-04      -3.262
	BactbOH           1.091e-05       0.019   1.091e-05      -4.962
	BactbOZn+         2.410e-06       0.004   2.410e-06      -5.618

Bactc         
	 -4.851e-05  Surface charge, eq
Bactc         
	  2.200e-04  moles
	                                   Mole                     Log
	Species               Moles    Fraction    Molality    Molality

	BactcOH           1.341e-04       0.610   1.341e-04      -3.873
	BactcO-           6.721e-05       0.305   6.721e-05      -4.173
	BactcOZn+         1.870e-05       0.085   1.870e-05      -4.728

Bactd         
	 -9.271e-07  Surface charge, eq
Bactd         
	  3.700e-04  moles
	                                   Mole                     Log
	Species               Moles    Fraction    Molality    Molality

	BactdOH           3.691e-04       0.997   3.691e-04      -3.433
	BactdO-           9.271e-07       0.003   9.271e-07      -6.033

-----------------------------Solution composition------------------------------

	Elements           Molality       Moles

	C                 3.107e-05   3.107e-05
	Cl                1.200e-01   1.200e-01
	Na                1.199e-01   1.199e-01
	Noma              2.150e-04   2.150e-04
	Nomb              3.560e-04   3.560e-04
	Nomc              1.930e-04   1.930e-04
	Nomd              4.290e-04   4.290e-04
	Zn                8.440e-05   8.440e-05

----------------------------Description of solution----------------------------

                                       pH  =   6.500      Charge balance
                                       pe  =  -0.747      Adjusted to redox equilibrium
                        Activity of water  =   0.996
                 Ionic strength (mol/kgw)  =   1.204e-01
                       Mass of water (kg)  =   1.000e+00
                 Total alkalinity (eq/kg)  =   6.925e-04
                       Total CO2 (mol/kg)  =   3.107e-05
                         Temperature (°C)  =  25.00
                  Electrical balance (eq)  =  -6.288e-04
 Percent error, 100*(Cat-|An|)/(Cat+|An|)  =  -0.26
                               Iterations  =  11
                                  Total H  = 1.110140e+02
                                  Total O  = 5.550798e+01

----------------------------Distribution of species----------------------------

                                               Log       Log       Log    mole V
   Species          Molality    Activity  Molality  Activity     Gamma   cm³/mol

   H+              4.102e-07   3.162e-07    -6.387    -6.500    -0.113      0.00
   OH-             4.243e-08   3.171e-08    -7.372    -7.499    -0.127     (0)  
   H2O             5.551e+01   9.959e-01     1.744    -0.002     0.000     18.07
C(4)          3.107e-05
   HCO3-           1.949e-05   1.514e-05    -4.710    -4.820    -0.110     (0)  
   H2CO3           1.077e-05   1.077e-05    -4.968    -4.968     0.000     (0)  
   NaHCO3          7.871e-07   7.871e-07    -6.104    -6.104     0.000     (0)  
   ZnHCO3+         1.263e-08   8.406e-09    -7.898    -8.075    -0.177     (0)  
   CO3-2           6.354e-09   2.245e-09    -8.197    -8.649    -0.452     (0)  
   NaCO3-          4.973e-09   3.864e-09    -8.303    -8.413    -0.110     (0)  
   ZnCO3           2.268e-09   2.268e-09    -8.644    -8.644     0.000     (0)  
Cl            1.200e-01
   Cl-             1.200e-01   9.251e-02    -0.921    -1.034    -0.113     (0)  
   ZnCl+           5.396e-06   4.079e-06    -5.268    -5.389    -0.122     (0)  
   ZnCl2           5.981e-07   5.981e-07    -6.223    -6.223     0.000     (0)  
   ZnOHCl          1.693e-07   1.693e-07    -6.771    -6.771     0.000     (0)  
   ZnCl3-          5.814e-08   4.395e-08    -7.236    -7.357    -0.122     (0)  
   ZnCl4-2         5.742e-09   2.033e-09    -8.241    -8.692    -0.451     (0)  
H(0)          4.295e-15
   H2              2.147e-15   2.208e-15   -14.668   -14.656     0.012     (0)  
Na            1.199e-01
   Na+             1.199e-01   9.244e-02    -0.921    -1.034    -0.113     (0)  
   NaHCO3          7.871e-07   7.871e-07    -6.104    -6.104     0.000     (0)  
   NaCO3-          4.973e-09   3.864e-09    -8.303    -8.413    -0.110     (0)  
Noma          2.150e-04
   NomaO-          2.122e-04   1.636e-04    -3.673    -3.786    -0.113     (0)  
   NomaOZn+        2.699e-06   2.081e-06    -5.569    -5.682    -0.113     (0)  
   NomaOH          6.635e-08   6.821e-08    -7.178    -7.166     0.012     (0)  
Nomb          3.560e-04
   NombO-          3.281e-04   2.530e-04    -3.484    -3.597    -0.113     (0)  
   NombOZn+        2.401e-05   1.851e-05    -4.620    -4.733    -0.113     (0)  
   NombOH          3.899e-06   4.009e-06    -5.409    -5.397     0.012     (0)  
Nomc          1.930e-04
   NomcO-          1.018e-04   7.845e-05    -3.992    -4.105    -0.113     (0)  
   NomcOH          8.965e-05   9.217e-05    -4.047    -4.035     0.012     (0)  
   NomcOZn+        1.592e-06   1.227e-06    -5.798    -5.911    -0.113     (0)  
Nomd          4.290e-04
   NomdOH          4.271e-04   4.391e-04    -3.370    -3.357     0.012     (0)  
   NomdO-          1.843e-06   1.421e-06    -5.735    -5.847    -0.113     (0)  
   NomdOZn+        9.769e-08   7.531e-08    -7.010    -7.123    -0.113     (0)  
O(0)          0.000e+00
   O2              0.000e+00   0.000e+00   -62.999   -62.987     0.012     (0)  
Zn            8.440e-05
   Zn+2            4.968e-05   1.755e-05    -4.304    -4.756    -0.452     (0)  
   NombOZn+        2.401e-05   1.851e-05    -4.620    -4.733    -0.113     (0)  
   ZnCl+           5.396e-06   4.079e-06    -5.268    -5.389    -0.122     (0)  
   NomaOZn+        2.699e-06   2.081e-06    -5.569    -5.682    -0.113     (0)  
   NomcOZn+        1.592e-06   1.227e-06    -5.798    -5.911    -0.113     (0)  
   ZnCl2           5.981e-07   5.981e-07    -6.223    -6.223     0.000     (0)  
   ZnOHCl          1.693e-07   1.693e-07    -6.771    -6.771     0.000     (0)  
   NomdOZn+        9.769e-08   7.531e-08    -7.010    -7.123    -0.113     (0)  
   ZnOH+           8.366e-08   5.566e-08    -7.077    -7.254    -0.177     (0)  
   ZnCl3-          5.814e-08   4.395e-08    -7.236    -7.357    -0.122     (0)  
   ZnHCO3+         1.263e-08   8.406e-09    -7.898    -8.075    -0.177     (0)  
   ZnCl4-2         5.742e-09   2.033e-09    -8.241    -8.692    -0.451     (0)  
   ZnCO3           2.268e-09   2.268e-09    -8.644    -8.644     0.000     (0)  
   Zn(OH)2         2.798e-10   2.798e-10    -9.553    -9.553     0.000     (0)  
   Zn(OH)3-        6.683e-14   4.446e-14   -13.175   -13.352    -0.177     (0)  
   Zn(OH)4-2       2.865e-19   5.613e-20   -18.543   -19.251    -0.708     (0)  

------------------------------Saturation indices-------------------------------

  Phase               SI** log IAP   log K(298 K,   1 atm)

  CH4(g)          -26.62    -67.67  -41.05  CH4
  CO2(g)           -3.50    -21.65  -18.15  CO2
  fix_pH           -6.50     -6.50    0.00  H+
  Halite           -3.67     -2.07    1.60  NaCl
  Natron           -9.42    -10.73   -1.31  Na2CO3:10H2O
  O2(g)           -60.08     23.01   83.09  O2
  Smithsonite      -3.40    -13.40  -10.00  ZnCO3
  Thermonatrite   -11.36    -10.72    0.64  Na2CO3:H2O
  Zincite          -3.09      8.24   11.33  ZnO
  Zn(OH)2          -3.96      8.24   12.20  Zn(OH)2
  Zn(OH)2(am)      -4.23      8.24   12.47  Zn(OH)2
  Zn(OH)2(beta)    -3.51      8.24   11.75  Zn(OH)2
  Zn(OH)2(epsilon)  -3.29      8.24   11.53  Zn(OH)2
  Zn(OH)2(gamma)   -3.49      8.24   11.73  Zn(OH)2
  Zn2(OH)3Cl       -6.24      8.95   15.19  Zn2(OH)3Cl
  Zn5(OH)8Cl2     -12.36     26.14   38.50  Zn5(OH)8Cl2
  ZnCl2           -13.87     -6.82    7.05  ZnCl2
  ZnCO3:1H2O       -3.15    -13.41  -10.26  ZnCO3:1H2O
  Znmetal         -29.05     -3.26   25.79  Zn
  ZnO(active)      -2.95      8.24   11.19  ZnO

**For a gas, SI = log10(fugacity). Fugacity = pressure * phi / 1 atm.
  For ideal gases, phi = 1.

------------------
End of simulation.
------------------

------------------------------------
Reading input data for simulation 7.
------------------------------------

	USE SOLUTION 1
	USE SURFACE 1
	EQUILIBRIUM_PHASES 1
	CO2(g) -3.5 10
	fix_pH -7.0 NaOH 10
	END
-----------------------------------------
Beginning of batch-reaction calculations.
-----------------------------------------

Reaction step 1.

Using solution 1.	
Using surface 1.	
Using pure phase assemblage 1.	

-------------------------------Phase assemblage--------------------------------

                                                      Moles in assemblage
Phase               SI  log IAP  log K(T, P)   Initial       Final       Delta

CO2(g)           -3.50   -21.65    -18.15    1.000e+01   1.000e+01  -7.506e-05
fix_pH           -7.00    -7.00      0.00
	 NaOH               is reactant       1.000e+01   1.000e+01  -6.442e-05

------------------------------Surface composition------------------------------

Bacta         
	 -4.189e-04  Surface charge, eq
Bacta         
	  4.400e-04  moles
	                                   Mole                     Log
	Species               Moles    Fraction    Molality    Molality

	BactaO-           4.294e-04       0.976   4.294e-04      -3.367
	BactaOZn+         1.052e-05       0.024   1.052e-05      -4.978
	BactaOH           8.568e-08       0.000   8.568e-08      -7.067

Bactb         
	 -5.522e-04  Surface charge, eq
Bactb         
	  5.600e-04  moles
	                                   Mole                     Log
	Species               Moles    Fraction    Molality    Molality

	BactbO-           5.544e-04       0.990   5.544e-04      -3.256
	BactbOH           3.498e-06       0.006   3.498e-06      -5.456
	BactbOZn+         2.152e-06       0.004   2.152e-06      -5.667

Bactc         
	 -8.856e-05  Surface charge, eq
Bactc         
	  2.200e-04  moles
	                                   Mole                     Log
	Species               Moles    Fraction    Molality    Molality

	BactcO-           1.173e-04       0.533   1.173e-04      -3.931
	BactcOH           7.400e-05       0.336   7.400e-05      -4.131
	BactcOZn+         2.872e-05       0.131   2.872e-05      -4.542

Bactd         
	 -2.916e-06  Surface charge, eq
Bactd         
	  3.700e-04  moles
	                                   Mole                     Log
	Species               Moles    Fraction    Molality    Molality

	BactdOH           3.671e-04       0.992   3.671e-04      -3.435
	BactdO-           2.916e-06       0.008   2.916e-06      -5.535

-----------------------------Solution composition------------------------------

	Elements           Molality       Moles

	C                 7.506e-05   7.506e-05
	Cl                1.200e-01   1.200e-01
	Na                1.201e-01   1.201e-01
	Noma              2.150e-04   2.150e-04
	Nomb              3.560e-04   3.560e-04
	Nomc              1.930e-04   1.930e-04
	Nomd              4.290e-04   4.290e-04
	Zn                7.602e-05   7.602e-05

----------------------------Description of solution----------------------------

                                       pH  =   7.000      Charge balance
                                       pe  =  -1.243      Adjusted to redox equilibrium
                        Activity of water  =   0.996
                 Ionic strength (mol/kgw)  =   1.205e-01
                       Mass of water (kg)  =   1.000e+00
                 Total alkalinity (eq/kg)  =   7.923e-04
                       Total CO2 (mol/kg)  =   7.506e-05
                         Temperature (°C)  =  25.00
                  Electrical balance (eq)  =  -5.758e-04
 Percent error, 100*(Cat-|An|)/(Cat+|An|)  =  -0.24
                               Iterations  =  11
                                  Total H  = 1.110142e+02
                                  Total O  = 5.550824e+01

----------------------------Distribution of species----------------------------

                                               Log       Log       Log    mole V
   Species          Molality    Activity  Molality  Activity     Gamma   cm³/mol

   OH-             1.342e-07   1.003e-07    -6.872    -6.999    -0.127     (0)  
   H+              1.297e-07   1.000e-07    -6.887    -7.000    -0.113      0.00
   H2O             5.551e+01   9.959e-01     1.744    -0.002     0.000     18.07
C(4)          7.506e-05
   HCO3-           6.163e-05   4.789e-05    -4.210    -4.320    -0.110     (0)  
   H2CO3           1.077e-05   1.077e-05    -4.968    -4.968     0.000     (0)  
   NaHCO3          2.492e-06   2.492e-06    -5.603    -5.603     0.000     (0)  
   CO3-2           6.356e-08   2.245e-08    -7.197    -7.649    -0.452     (0)  
   NaCO3-          4.980e-08   3.869e-08    -7.303    -7.412    -0.110     (0)  
   ZnHCO3+         3.518e-08   2.340e-08    -7.454    -7.631    -0.177     (0)  
   ZnCO3           1.996e-08   1.996e-08    -7.700    -7.700     0.000     (0)  
Cl            1.200e-01
   Cl-             1.200e-01   9.251e-02    -0.921    -1.034    -0.113     (0)  
   ZnCl+           4.751e-06   3.591e-06    -5.323    -5.445    -0.122     (0)  
   ZnCl2           5.264e-07   5.264e-07    -6.279    -6.279     0.000     (0)  
   ZnOHCl          4.714e-07   4.714e-07    -6.327    -6.327     0.000     (0)  
   ZnCl3-          5.118e-08   3.868e-08    -7.291    -7.412    -0.122     (0)  
   ZnCl4-2         5.055e-09   1.789e-09    -8.296    -8.747    -0.451     (0)  
H(0)          4.215e-15
   H2              2.108e-15   2.167e-15   -14.676   -14.664     0.012     (0)  
Na            1.201e-01
   Na+             1.201e-01   9.256e-02    -0.921    -1.034    -0.113     (0)  
   NaHCO3          2.492e-06   2.492e-06    -5.603    -5.603     0.000     (0)  
   NaCO3-          4.980e-08   3.869e-08    -7.303    -7.412    -0.110     (0)  
Noma          2.150e-04
   NomaO-          2.126e-04   1.639e-04    -3.672    -3.785    -0.113     (0)  
   NomaOZn+        2.380e-06   1.835e-06    -5.623    -5.736    -0.113     (0)  
   NomaOH          2.101e-08   2.161e-08    -7.677    -7.665     0.012     (0)  
Nomb          3.560e-04
   NombO-          3.333e-04   2.569e-04    -3.477    -3.590    -0.113     (0)  
   NombOZn+        2.147e-05   1.655e-05    -4.668    -4.781    -0.113     (0)  
   NombOH          1.252e-06   1.288e-06    -5.902    -5.890     0.012     (0)  
Nomc          1.930e-04
   NomcO-          1.493e-04   1.151e-04    -3.826    -3.939    -0.113     (0)  
   NomcOH          4.160e-05   4.277e-05    -4.381    -4.369     0.012     (0)  
   NomcOZn+        2.057e-06   1.586e-06    -5.687    -5.800    -0.113     (0)  
Nomd          4.290e-04
   NomdOH          4.230e-04   4.349e-04    -3.374    -3.362     0.012     (0)  
   NomdO-          5.772e-06   4.450e-06    -5.239    -5.352    -0.113     (0)  
   NomdOZn+        2.694e-07   2.077e-07    -6.570    -6.683    -0.113     (0)  
O(0)          0.000e+00
   O2              0.000e+00   0.000e+00   -62.982   -62.970     0.012     (0)  
Zn            7.602e-05
   Zn+2            4.375e-05   1.545e-05    -4.359    -4.811    -0.452     (0)  
   NombOZn+        2.147e-05   1.655e-05    -4.668    -4.781    -0.113     (0)  
   ZnCl+           4.751e-06   3.591e-06    -5.323    -5.445    -0.122     (0)  
   NomaOZn+        2.380e-06   1.835e-06    -5.623    -5.736    -0.113     (0)  
   NomcOZn+        2.057e-06   1.586e-06    -5.687    -5.800    -0.113     (0)  
   ZnCl2           5.264e-07   5.264e-07    -6.279    -6.279     0.000     (0)  
   ZnOHCl          4.714e-07   4.714e-07    -6.327    -6.327     0.000     (0)  
   NomdOZn+        2.694e-07   2.077e-07    -6.570    -6.683    -0.113     (0)  
   ZnOH+           2.330e-07   1.550e-07    -6.633    -6.810    -0.177     (0)  
   ZnCl3-          5.118e-08   3.868e-08    -7.291    -7.412    -0.122     (0)  
   ZnHCO3+         3.518e-08   2.340e-08    -7.454    -7.631    -0.177     (0)  
   ZnCO3           1.996e-08   1.996e-08    -7.700    -7.700     0.000     (0)  
   ZnCl4-2         5.055e-09   1.789e-09    -8.296    -8.747    -0.451     (0)  
   Zn(OH)2         2.463e-09   2.463e-09    -8.609    -8.609     0.000     (0)  
   Zn(OH)3-        1.861e-12   1.238e-12   -11.730   -11.907    -0.177     (0)  
   Zn(OH)4-2       2.524e-17   4.942e-18   -16.598   -17.306    -0.708     (0)  

------------------------------Saturation indices-------------------------------

  Phase               SI** log IAP   log K(298 K,   1 atm)

  CH4(g)          -26.65    -67.70  -41.05  CH4
  CO2(g)           -3.50    -21.65  -18.15  CO2
  fix_pH           -7.00     -7.00    0.00  H+
  Halite           -3.67     -2.07    1.60  NaCl
  Natron           -8.42     -9.73   -1.31  Na2CO3:10H2O
  O2(g)           -60.06     23.02   83.09  O2
  Smithsonite      -2.46    -12.46  -10.00  ZnCO3
  Thermonatrite   -10.35     -9.72    0.64  Na2CO3:H2O
  Zincite          -2.15      9.19   11.33  ZnO
  Zn(OH)2          -3.01      9.19   12.20  Zn(OH)2
  Zn(OH)2(am)      -3.29      9.19   12.47  Zn(OH)2
  Zn(OH)2(beta)    -2.57      9.19   11.75  Zn(OH)2
  Zn(OH)2(epsilon)  -2.35      9.19   11.53  Zn(OH)2
  Zn(OH)2(gamma)   -2.55      9.19   11.73  Zn(OH)2
  Zn2(OH)3Cl       -4.85     10.34   15.19  Zn2(OH)3Cl
  Zn5(OH)8Cl2      -8.64     29.86   38.50  Zn5(OH)8Cl2
  ZnCl2           -13.93     -6.88    7.05  ZnCl2
  ZnCO3:1H2O       -2.20    -12.46  -10.26  ZnCO3:1H2O
  Znmetal         -28.11     -2.33   25.79  Zn
  ZnO(active)      -2.00      9.19   11.19  ZnO

**For a gas, SI = log10(fugacity). Fugacity = pressure * phi / 1 atm.
  For ideal gases, phi = 1.

------------------
End of simulation.
------------------

------------------------------------
Reading input data for simulation 8.
------------------------------------

	USE SOLUTION 1
	USE SURFACE 1
	EQUILIBRIUM_PHASES 1
	CO2(g) -3.5 10
	fix_pH -7.5 NaOH 10
	END
-----------------------------------------
Beginning of batch-reaction calculations.
-----------------------------------------

Reaction step 1.

Using solution 1.	
Using surface 1.	
Using pure phase assemblage 1.	

-------------------------------Phase assemblage--------------------------------

                                                      Moles in assemblage
Phase               SI  log IAP  log K(T, P)   Initial       Final       Delta

CO2(g)           -3.50   -21.65    -18.15    1.000e+01   1.000e+01  -2.150e-04
fix_pH           -7.50    -7.50      0.00
	 NaOH               is reactant       1.000e+01   1.000e+01  -2.984e-04

------------------------------Surface composition------------------------------

Bacta         
	 -4.209e-04  Surface charge, eq
Bacta         
	  4.400e-04  moles
	                                   Mole                     Log
	Species               Moles    Fraction    Molality    Molality

	BactaO-           4.304e-04       0.978   4.304e-04      -3.366
	BactaOZn+         9.554e-06       0.022   9.554e-06      -5.020
	BactaOH           2.716e-08       0.000   2.716e-08      -7.566

Bactb         
	 -5.550e-04  Surface charge, eq
Bactb         
	  5.600e-04  moles
	                                   Mole                     Log
	Species               Moles    Fraction    Molality    Molality

	BactbO-           5.569e-04       0.995   5.569e-04      -3.254
	BactbOZn+         1.959e-06       0.003   1.959e-06      -5.708
	BactbOH           1.111e-06       0.002   1.111e-06      -5.954

Bactc         
	 -1.204e-04  Surface charge, eq
Bactc         
	  2.200e-04  moles
	                                   Mole                     Log
	Species               Moles    Fraction    Molality    Molality

	BactcO-           1.548e-04       0.703   1.548e-04      -3.810
	BactcOZn+         3.435e-05       0.156   3.435e-05      -4.464
	BactcOH           3.088e-05       0.140   3.088e-05      -4.510

Bactd         
	 -9.066e-06  Surface charge, eq
Bactd         
	  3.700e-04  moles
	                                   Mole                     Log
	Species               Moles    Fraction    Molality    Molality

	BactdOH           3.609e-04       0.975   3.609e-04      -3.443
	BactdO-           9.066e-06       0.025   9.066e-06      -5.043

-----------------------------Solution composition------------------------------

	Elements           Molality       Moles

	C                 2.150e-04   2.150e-04
	Cl                1.200e-01   1.200e-01
	Na                1.203e-01   1.203e-01
	Noma              2.150e-04   2.150e-04
	Nomb              3.560e-04   3.560e-04
	Nomc              1.930e-04   1.930e-04
	Nomd              4.290e-04   4.290e-04
	Zn                7.154e-05   7.154e-05

----------------------------Description of solution----------------------------

                                       pH  =   7.500      Charge balance
                                       pe  =  -1.746      Adjusted to redox equilibrium
                        Activity of water  =   0.996
                 Ionic strength (mol/kgw)  =   1.207e-01
                       Mass of water (kg)  =   1.000e+00
                 Total alkalinity (eq/kg)  =   9.746e-04
                       Total CO2 (mol/kg)  =   2.150e-04
                         Temperature (°C)  =  25.00
                  Electrical balance (eq)  =  -5.331e-04
 Percent error, 100*(Cat-|An|)/(Cat+|An|)  =  -0.22
                               Iterations  =  12
                                  Total H  = 1.110145e+02
                                  Total O  = 5.550876e+01

----------------------------Distribution of species----------------------------

                                               Log       Log       Log    mole V
   Species          Molality    Activity  Molality  Activity     Gamma   cm³/mol

   OH-             4.245e-07   3.171e-07    -6.372    -6.499    -0.127     (0)  
   H+              4.102e-08   3.162e-08    -7.387    -7.500    -0.113      0.00
   H2O             5.551e+01   9.959e-01     1.744    -0.002     0.000     18.07
C(4)          2.150e-04
   HCO3-           1.949e-04   1.514e-04    -3.710    -3.820    -0.110     (0)  
   H2CO3           1.077e-05   1.077e-05    -4.968    -4.968     0.000     (0)  
   NaHCO3          7.896e-06   7.896e-06    -5.103    -5.103     0.000     (0)  
   CO3-2           6.359e-07   2.245e-07    -6.197    -6.649    -0.452     (0)  
   NaCO3-          4.989e-07   3.876e-07    -6.302    -6.412    -0.110     (0)  
   ZnCO3           1.809e-07   1.809e-07    -6.742    -6.742     0.000     (0)  
   ZnHCO3+         1.009e-07   6.707e-08    -6.996    -7.173    -0.177     (0)  
Cl            1.200e-01
   Cl-             1.200e-01   9.249e-02    -0.921    -1.034    -0.113     (0)  
   ZnCl+           4.306e-06   3.254e-06    -5.366    -5.488    -0.122     (0)  
   ZnOHCl          1.351e-06   1.351e-06    -5.869    -5.869     0.000     (0)  
[...]
  Zn(OH)2(epsilon)   1.07     12.60   11.53  Zn(OH)2
  Zn(OH)2(gamma)    0.87     12.60   11.73  Zn(OH)2
  Zn2(OH)3Cl       -0.03     15.16   15.19  Zn2(OH)3Cl
  Zn5(OH)8Cl2       4.43     42.93   38.50  Zn5(OH)8Cl2
  ZnCl2           -14.52     -7.47    7.05  ZnCl2
  ZnCO3:1H2O        1.21     -9.05  -10.26  ZnCO3:1H2O
  Znmetal         -24.68      1.10   25.79  Zn
  ZnO(active)       1.41     12.60   11.19  ZnO

**For a gas, SI = log10(fugacity). Fugacity = pressure * phi / 1 atm.
  For ideal gases, phi = 1.

------------------
End of simulation.
------------------

-------------------------------------
Reading input data for simulation 12.
-------------------------------------

	USE SOLUTION 1
	USE SURFACE 1
	EQUILIBRIUM_PHASES 1
	CO2(g) -3.5 10
	fix_pH -9.5 NaOH 10
	END
-----------------------------------------
Beginning of batch-reaction calculations.
-----------------------------------------

Reaction step 1.

Using solution 1.	
Using surface 1.	
Using pure phase assemblage 1.	

-------------------------------Phase assemblage--------------------------------

                                                      Moles in assemblage
Phase               SI  log IAP  log K(T, P)   Initial       Final       Delta

CO2(g)           -3.50   -21.65    -18.15    1.000e+01   9.965e+00  -3.479e-02
fix_pH           -9.50    -9.50      0.00
	 NaOH               is reactant       1.000e+01   9.951e+00  -4.934e-02

------------------------------Surface composition------------------------------

Bacta         
	 -4.391e-04  Surface charge, eq
Bacta         
	  4.400e-04  moles
	                                   Mole                     Log
	Species               Moles    Fraction    Molality    Molality

	BactaO-           4.395e-04       0.999   4.394e-04      -3.357
	BactaOZn+         4.674e-07       0.001   4.673e-07      -6.330
	BactaOH           2.773e-10       0.000   2.773e-10      -9.557

Bactb         
	 -5.598e-04  Surface charge, eq
Bactb         
	  5.600e-04  moles
	                                   Mole                     Log
	Species               Moles    Fraction    Molality    Molality

	BactbO-           5.599e-04       1.000   5.597e-04      -3.252
	BactbOZn+         9.437e-08       0.000   9.435e-08      -7.025
	BactbOH           1.117e-08       0.000   1.117e-08      -7.952

Bactc         
	 -2.149e-04  Surface charge, eq
Bactc         
	  2.200e-04  moles
	                                   Mole                     Log
	Species               Moles    Fraction    Molality    Molality

	BactcO-           2.173e-04       0.988   2.172e-04      -3.663
	BactcOZn+         2.311e-06       0.011   2.310e-06      -5.636
	BactcOH           4.335e-07       0.002   4.334e-07      -6.363

Bactd         
	 -2.646e-04  Surface charge, eq
Bactd         
	  3.700e-04  moles
	                                   Mole                     Log
	Species               Moles    Fraction    Molality    Molality

	BactdO-           2.646e-04       0.715   2.646e-04      -3.577
	BactdOH           1.054e-04       0.285   1.053e-04      -3.977

-----------------------------Solution composition------------------------------

	Elements           Molality       Moles

	C                 3.478e-02   3.479e-02
	Cl                1.200e-01   1.200e-01
	Na                1.693e-01   1.693e-01
	Noma              2.149e-04   2.150e-04
	Nomb              3.559e-04   3.560e-04
	Nomc              1.929e-04   1.930e-04
	Nomd              4.289e-04   4.290e-04
	Zn                1.145e-04   1.145e-04

----------------------------Description of solution----------------------------

                                       pH  =   9.500      Charge balance
                                       pe  =  -3.752      Adjusted to redox equilibrium
                        Activity of water  =   0.995
                 Ionic strength (mol/kgw)  =   1.686e-01
                       Mass of water (kg)  =   1.000e+00
                 Total alkalinity (eq/kg)  =   4.972e-02
                       Total CO2 (mol/kg)  =   3.478e-02
                         Temperature (°C)  =  25.00
                  Electrical balance (eq)  =  -1.599e-04
 Percent error, 100*(Cat-|An|)/(Cat+|An|)  =  -0.05
                               Iterations  =  16
                                  Total H  = 1.110638e+02
                                  Total O  = 5.562695e+01

----------------------------Distribution of species----------------------------

                                               Log       Log       Log    mole V
   Species          Molality    Activity  Molality  Activity     Gamma   cm³/mol

   OH-             4.394e-05   3.167e-05    -4.357    -4.499    -0.142     (0)  
   H+              4.194e-10   3.162e-10    -9.377    -9.500    -0.123      0.00
   H2O             5.551e+01   9.946e-01     1.744    -0.002     0.000     18.07
C(4)          3.478e-02
   HCO3-           1.999e-02   1.512e-02    -1.699    -1.820    -0.121     (0)  
   CO3-2           6.939e-03   2.242e-03    -2.159    -2.649    -0.491     (0)  
   NaCO3-          6.721e-03   5.085e-03    -2.173    -2.294    -0.121     (0)  
   NaHCO3          1.036e-03   1.036e-03    -2.985    -2.985     0.000     (0)  
   ZnCO3           8.657e-05   8.657e-05    -4.063    -4.063     0.000     (0)  
   H2CO3           1.076e-05   1.076e-05    -4.968    -4.968     0.000     (0)  
   ZnHCO3+         5.197e-07   3.209e-07    -6.284    -6.494    -0.209     (0)  
Cl            1.200e-01
   Cl-             1.200e-01   9.045e-02    -0.921    -1.044    -0.123     (0)  
   ZnOHCl          6.321e-06   6.321e-06    -5.199    -5.199     0.000     (0)  
   ZnCl+           2.085e-07   1.524e-07    -6.681    -6.817    -0.136     (0)  
   ZnCl2           2.185e-08   2.185e-08    -7.660    -7.660     0.000     (0)  
   ZnCl3-          2.147e-09   1.570e-09    -8.668    -8.804    -0.136     (0)  
   ZnCl4-2         2.247e-10   7.100e-11    -9.648   -10.149    -0.500     (0)  
H(0)          4.352e-15
   H2              2.176e-15   2.262e-15   -14.662   -14.646     0.017     (0)  
Na            1.693e-01
   Na+             1.615e-01   1.218e-01    -0.792    -0.914    -0.123     (0)  
   NaCO3-          6.721e-03   5.085e-03    -2.173    -2.294    -0.121     (0)  
   NaHCO3          1.036e-03   1.036e-03    -2.985    -2.985     0.000     (0)  
Noma          2.149e-04
   NomaO-          2.148e-04   1.620e-04    -3.668    -3.791    -0.123     (0)  
   NomaOZn+        1.044e-07   7.874e-08    -6.981    -7.104    -0.123     (0)  
   NomaOH          6.495e-11   6.752e-11   -10.187   -10.171     0.017     (0)  
Nomb          3.559e-04
   NombO-          3.549e-04   2.676e-04    -3.450    -3.573    -0.123     (0)  
   NombOZn+        9.928e-07   7.485e-07    -6.003    -6.126    -0.123     (0)  
   NombOH          4.079e-09   4.241e-09    -8.389    -8.373     0.017     (0)  
Nomc          1.929e-04
   NomcO-          1.927e-04   1.453e-04    -3.715    -3.838    -0.123     (0)  
   NomcOH          1.642e-07   1.707e-07    -6.785    -6.768     0.017     (0)  
   NomcOZn+        1.152e-07   8.687e-08    -6.938    -7.061    -0.123     (0)  
Nomd          4.289e-04
   NomdO-          3.498e-04   2.637e-04    -3.456    -3.579    -0.123     (0)  
   NomdOH          7.839e-05   8.150e-05    -4.106    -4.089     0.017     (0)  
   NomdOZn+        7.088e-07   5.344e-07    -6.149    -6.272    -0.123     (0)  
O(0)          0.000e+00
   O2              0.000e+00   0.000e+00   -63.026   -63.009     0.017     (0)  
Zn            1.145e-04
   ZnCO3           8.657e-05   8.657e-05    -4.063    -4.063     0.000     (0)  
   Zn(OH)2         1.067e-05   1.067e-05    -4.972    -4.972     0.000     (0)  
   ZnOHCl          6.321e-06   6.321e-06    -5.199    -5.199     0.000     (0)  
   ZnOH+           3.442e-06   2.125e-06    -5.463    -5.673    -0.209     (0)  
   Zn(OH)3-        2.742e-06   1.693e-06    -5.562    -5.771    -0.209     (0)  
   Zn+2            2.077e-06   6.710e-07    -5.683    -6.173    -0.491     (0)  
   NombOZn+        9.928e-07   7.485e-07    -6.003    -6.126    -0.123     (0)  
   NomdOZn+        7.088e-07   5.344e-07    -6.149    -6.272    -0.123     (0)  
   ZnHCO3+         5.197e-07   3.209e-07    -6.284    -6.494    -0.209     (0)  
   ZnCl+           2.085e-07   1.524e-07    -6.681    -6.817    -0.136     (0)  
   NomcOZn+        1.152e-07   8.687e-08    -6.938    -7.061    -0.123     (0)  
   NomaOZn+        1.044e-07   7.874e-08    -6.981    -7.104    -0.123     (0)  
   ZnCl2           2.185e-08   2.185e-08    -7.660    -7.660     0.000     (0)  
   Zn(OH)4-2       1.469e-08   2.135e-09    -7.833    -8.671    -0.838     (0)  
   ZnCl3-          2.147e-09   1.570e-09    -8.668    -8.804    -0.136     (0)  
   ZnCl4-2         2.247e-10   7.100e-11    -9.648   -10.149    -0.500     (0)  

------------------------------Saturation indices-------------------------------

  Phase               SI** log IAP   log K(298 K,   1 atm)

  CH4(g)          -26.58    -67.62  -41.05  CH4
  CO2(g)           -3.50    -21.65  -18.15  CO2
  fix_pH           -9.50     -9.50    0.00  H+
  Halite           -3.56     -1.96    1.60  NaCl
  Natron           -3.19     -4.50   -1.31  Na2CO3:10H2O
  O2(g)           -60.10     22.99   83.09  O2
  Smithsonite       1.18     -8.82  -10.00  ZnCO3
  Thermonatrite    -5.12     -4.48    0.64  Na2CO3:H2O
  Zincite           1.49     12.82   11.33  ZnO
  Zn(OH)2           0.62     12.82   12.20  Zn(OH)2
  Zn(OH)2(am)       0.35     12.82   12.47  Zn(OH)2
  Zn(OH)2(beta)     1.07     12.82   11.75  Zn(OH)2
  Zn(OH)2(epsilon)   1.29     12.82   11.53  Zn(OH)2
  Zn(OH)2(gamma)    1.09     12.82   11.73  Zn(OH)2
  Zn2(OH)3Cl       -0.09     15.10   15.19  Zn2(OH)3Cl
  Zn5(OH)8Cl2       4.53     43.03   38.50  Zn5(OH)8Cl2
  ZnCl2           -15.31     -8.26    7.05  ZnCl2
  ZnCO3:1H2O        1.44     -8.82  -10.26  ZnCO3:1H2O
  Znmetal         -24.46      1.33   25.79  Zn
  ZnO(active)       1.64     12.82   11.19  ZnO

**For a gas, SI = log10(fugacity). Fugacity = pressure * phi / 1 atm.
  For ideal gases, phi = 1.

------------------
End of simulation.
------------------

-------------------------------------
Reading input data for simulation 13.
-------------------------------------

	USE SOLUTION 1
	USE SURFACE 1
	EQUILIBRIUM_PHASES 1
	CO2(g) -3.5 10
	fix_pH -10.0 NaOH 10
	END
-----------------------------------------
Beginning of batch-reaction calculations.
-----------------------------------------

Reaction step 1.

Using solution 1.	
Using surface 1.	
Using pure phase assemblage 1.	

-------------------------------Phase assemblage--------------------------------

                                                      Moles in assemblage
Phase               SI  log IAP  log K(T, P)   Initial       Final       Delta

CO2(g)           -3.50   -21.65    -18.15    1.000e+01   9.566e+00  -4.335e-01
fix_pH          -10.00   -10.00      0.00
	 NaOH               is reactant       1.000e+01   9.214e+00  -7.856e-01

------------------------------Surface composition------------------------------

Bacta         
	 -4.399e-04  Surface charge, eq
Bacta         
	  4.400e-04  moles
	                                   Mole                     Log
	Species               Moles    Fraction    Molality    Molality

	BactaO-           4.400e-04       1.000   4.372e-04      -3.359
	BactaOZn+         4.753e-08       0.000   4.723e-08      -7.326
	BactaOH           8.778e-11       0.000   8.723e-11     -10.059

Bactb         
	 -5.600e-04  Surface charge, eq
Bactb         
	  5.600e-04  moles
	                                   Mole                     Log
	Species               Moles    Fraction    Molality    Molality

	BactbO-           5.600e-04       1.000   5.565e-04      -3.255
	BactbOZn+         9.589e-09       0.000   9.528e-09      -8.021
	BactbOH           3.533e-09       0.000   3.511e-09      -8.455

Bactc         
	 -2.194e-04  Surface charge, eq
Bactc         
	  2.200e-04  moles
	                                   Mole                     Log
	Species               Moles    Fraction    Molality    Molality

	BactcO-           2.196e-04       0.998   2.182e-04      -3.661
	BactcOZn+         2.373e-07       0.001   2.358e-07      -6.627
	BactcOH           1.386e-07       0.001   1.377e-07      -6.861

Bactd         
	 -3.286e-04  Surface charge, eq
Bactd         
	  3.700e-04  moles
	                                   Mole                     Log
	Species               Moles    Fraction    Molality    Molality

	BactdO-           3.286e-04       0.888   3.266e-04      -3.486
	BactdOH           4.137e-05       0.112   4.111e-05      -4.386

-----------------------------Solution composition------------------------------

	Elements           Molality       Moles

	C                 4.308e-01   4.335e-01
	Cl                1.192e-01   1.200e-01
	Na                8.999e-01   9.056e-01
	Noma              2.136e-04   2.150e-04
	Nomb              3.538e-04   3.560e-04
	Nomc              1.918e-04   1.930e-04
	Nomd              4.263e-04   4.290e-04
	Zn                1.164e-04   1.171e-04

----------------------------Description of solution----------------------------

                                       pH  =  10.000      Charge balance
                                       pe  =  -4.258      Adjusted to redox equilibrium
                        Activity of water  =   0.980
                 Ionic strength (mol/kgw)  =   6.807e-01
                       Mass of water (kg)  =   1.006e+00
                 Total alkalinity (eq/kg)  =   7.810e-01
                       Total CO2 (mol/kg)  =   4.308e-01
                         Temperature (°C)  =  25.00
                  Electrical balance (eq)  =  -9.050e-05
 Percent error, 100*(Cat-|An|)/(Cat+|An|)  =  -0.01
                               Iterations  =  17
                                  Total H  = 1.118002e+02
                                  Total O  = 5.716070e+01

----------------------------Distribution of species----------------------------

                                               Log       Log       Log    mole V
   Species          Molality    Activity  Molality  Activity     Gamma   cm³/mol

   OH-             1.623e-04   9.871e-05    -3.790    -4.006    -0.216     (0)  
   H+              1.338e-10   1.000e-10    -9.874   -10.000    -0.126      0.00
   H2O             5.551e+01   9.803e-01     1.744    -0.009     0.000     18.07
C(4)          4.308e-01
   NaCO3-          2.780e-01   1.876e-01    -0.556    -0.727    -0.171     (0)  
   CO3-2           7.079e-02   2.210e-02    -1.150    -1.656    -0.506     (0)  
   HCO3-           6.985e-02   4.713e-02    -1.156    -1.327    -0.171     (0)  
   NaHCO3          1.208e-02   1.208e-02    -1.918    -1.918     0.000     (0)  
   ZnCO3           8.668e-05   8.668e-05    -4.062    -4.062     0.000     (0)  
   H2CO3           1.060e-05   1.060e-05    -4.975    -4.975     0.000     (0)  
   ZnHCO3+         2.678e-07   1.016e-07    -6.572    -6.993    -0.421     (0)  
Cl            1.192e-01
   Cl-             1.192e-01   8.913e-02    -0.924    -1.050    -0.126     (0)  
   ZnOHCl          1.972e-06   1.972e-06    -5.705    -5.705     0.000     (0)  
   ZnCl+           2.429e-08   1.526e-08    -7.614    -7.816    -0.202     (0)  
   ZnCl2           2.156e-09   2.156e-09    -8.666    -8.666     0.000     (0)  
   ZnCl3-          2.430e-10   1.526e-10    -9.614    -9.816    -0.202     (0)  
   ZnCl4-2         3.527e-11   6.802e-12   -10.453   -11.167    -0.715     (0)  
H(0)          3.975e-15
   H2              1.988e-15   2.325e-15   -14.702   -14.634     0.068     (0)  
Na            8.999e-01
   Na+             6.099e-01   4.559e-01    -0.215    -0.341    -0.126     (0)  
   NaCO3-          2.780e-01   1.876e-01    -0.556    -0.727    -0.171     (0)  
   NaHCO3          1.208e-02   1.208e-02    -1.918    -1.918     0.000     (0)  
Noma          2.136e-04
   NomaO-          2.136e-04   1.597e-04    -3.670    -3.797    -0.126     (0)  
   NomaOZn+        1.055e-08   7.886e-09    -7.977    -8.103    -0.126     (0)  
   NomaOH          1.800e-11   2.105e-11   -10.745   -10.677     0.068     (0)  
Nomb          3.538e-04
   NombO-          3.537e-04   2.643e-04    -3.451    -3.578    -0.126     (0)  
   NombOZn+        1.005e-07   7.512e-08    -6.998    -7.124    -0.126     (0)  
   NombOH          1.133e-09   1.325e-09    -8.946    -8.878     0.068     (0)  
Nomc          1.918e-04
   NomcO-          1.917e-04   1.433e-04    -3.717    -3.844    -0.126     (0)  
   NomcOH          4.552e-08   5.324e-08    -7.342    -7.274     0.068     (0)  
   NomcOZn+        1.165e-08   8.707e-09    -7.934    -8.060    -0.126     (0)  
Nomd          4.263e-04
   NomdO-          4.012e-04   2.999e-04    -3.397    -3.523    -0.126     (0)  
   NomdOH          2.505e-05   2.930e-05    -4.601    -4.533     0.068     (0)  
   NomdOZn+        8.259e-08   6.173e-08    -7.083    -7.210    -0.126     (0)  
O(0)          0.000e+00
   O2              0.000e+00   0.000e+00   -63.113   -63.045     0.068     (0)  
Zn            1.164e-04
   ZnCO3           8.668e-05   8.668e-05    -4.062    -4.062     0.000     (0)  
   Zn(OH)3-        1.372e-05   5.207e-06    -4.863    -5.283    -0.421     (0)  
   Zn(OH)2         1.053e-05   1.053e-05    -4.978    -4.978     0.000     (0)  
   ZnOHCl          1.972e-06   1.972e-06    -5.705    -5.705     0.000     (0)  
   ZnOH+           1.773e-06   6.729e-07    -5.751    -6.172    -0.421     (0)  
   Zn(OH)4-2       9.866e-07   2.046e-08    -6.006    -7.689    -1.683     (0)  
   ZnHCO3+         2.678e-07   1.016e-07    -6.572    -6.993    -0.421     (0)  
   Zn+2            2.184e-07   6.817e-08    -6.661    -7.166    -0.506     (0)  
   NombOZn+        1.005e-07   7.512e-08    -6.998    -7.124    -0.126     (0)  
   NomdOZn+        8.259e-08   6.173e-08    -7.083    -7.210    -0.126     (0)  
   ZnCl+           2.429e-08   1.526e-08    -7.614    -7.816    -0.202     (0)  
   NomcOZn+        1.165e-08   8.707e-09    -7.934    -8.060    -0.126     (0)  
   NomaOZn+        1.055e-08   7.886e-09    -7.977    -8.103    -0.126     (0)  
   ZnCl2           2.156e-09   2.156e-09    -8.666    -8.666     0.000     (0)  
   ZnCl3-          2.430e-10   1.526e-10    -9.614    -9.816    -0.202     (0)  
   ZnCl4-2         3.527e-11   6.802e-12   -10.453   -11.167    -0.715     (0)  

------------------------------Saturation indices-------------------------------

  Phase               SI** log IAP   log K(298 K,   1 atm)

  CH4(g)          -26.52    -67.56  -41.05  CH4
  CO2(g)           -3.50    -21.65  -18.15  CO2
  fix_pH          -10.00    -10.00    0.00  H+
  Halite           -2.99     -1.39    1.60  NaCl
  Natron           -1.11     -2.42   -1.31  Na2CO3:10H2O
  O2(g)           -60.14     22.95   83.09  O2
  Smithsonite       1.18     -8.82  -10.00  ZnCO3
  Thermonatrite    -2.98     -2.35    0.64  Na2CO3:H2O
  Zincite           1.49     12.82   11.33  ZnO
  Zn(OH)2           0.62     12.82   12.20  Zn(OH)2
  Zn(OH)2(am)       0.34     12.82   12.47  Zn(OH)2
  Zn(OH)2(beta)     1.06     12.82   11.75  Zn(OH)2
  Zn(OH)2(epsilon)   1.28     12.82   11.53  Zn(OH)2
  Zn(OH)2(gamma)    1.08     12.82   11.73  Zn(OH)2
  Zn2(OH)3Cl       -0.60     14.59   15.19  Zn2(OH)3Cl
  Zn5(OH)8Cl2       3.50     42.00   38.50  Zn5(OH)8Cl2
  ZnCl2           -16.32     -9.27    7.05  ZnCl2
  ZnCO3:1H2O        1.43     -8.83  -10.26  ZnCO3:1H2O
  Znmetal         -24.44      1.35   25.79  Zn
  ZnO(active)       1.64     12.82   11.19  ZnO

**For a gas, SI = log10(fugacity). Fugacity = pressure * phi / 1 atm.
  For ideal gases, phi = 1.

------------------
End of simulation.
------------------

-------------------------------------
Reading input data for simulation 14.
-------------------------------------

----------------------------------
End of Run after 0.060483 Seconds.
----------------------------------

