   Input file: BactZn.pqi
  Output file: BactZn.pqo
Database file: /home/drew/opt/phreeqc/database/minteq.v4.dat

------------------
Reading data base.
------------------

	SOLUTION_MASTER_SPECIES
	SOLUTION_SPECIES
	SOLUTION_SPECIES
	PHASES
	PHASES
	SURFACE_MASTER_SPECIES
	SURFACE_SPECIES
	END
------------------------------------
Reading input data for simulation 1.
------------------------------------

	SURFACE_MASTER_SPECIES
	Bacta BactaO-
	Bactb BactbO-
	Bactc BactcO-
	Bactd BactdO-
	SURFACE_SPECIES
	BactaO- = BactaO-
	log_k 0
	BactbO- = BactbO-
	log_k 0
	BactcO- = BactcO-
	log_k 0
	BactdO- = BactdO-
	log_k 0
	BactaO- + H+ = BactaOH
	log_k 3.3
	BactbO- + H+ = BactbOH
	log_k 4.8
	BactcO- + H+ = BactcOH
	log_k 6.8
	BactdO- + H+ = BactdOH
	log_k 9.1
	BactaO- + Zn+2 = BactaOZn+
	log_k 3.2
	BactbO- + Zn+2 = BactbOZn+
	log_k 2.4
	BactcO- + Zn+2 = BactcOZn+
	log_k 4.2
	SOLUTION 1
	    temp      25
	    pH        7
	    pe        4
	    redox     pe
	    units     mmol/kgw
	    density   1
	    Cl        120
	    Na        120
	    Zn        0.076
	    water    1 # kg
	SURFACE 1
	    BactaO-    0.00044
	    BactbO-    0.00056
	    BactcO-    0.00022
	    BactdO-    0.00037
	    equilibrate Solution 1
	    no_edl
	PHASES 1
	fix_pH
	H+ = H+
	log_k 0
	SELECTED_OUTPUT 1
	    file                 bact_output.sel
	    reset                false
	    ph                   true
	    molalities           BactaOZn+  BactbOZn+  BactcOZn+
	END
-------------------------------------------
Beginning of initial solution calculations.
-------------------------------------------

Initial solution 1.	

-----------------------------Solution composition------------------------------

	Elements           Molality       Moles

	Cl                1.200e-01   1.200e-01
	Na                1.200e-01   1.200e-01
	Zn                7.600e-05   7.600e-05

----------------------------Description of solution----------------------------

                                       pH  =   7.000    
                                       pe  =   4.000    
                        Activity of water  =   0.996
                 Ionic strength (mol/kgw)  =   1.201e-01
                       Mass of water (kg)  =   1.000e+00
                 Total alkalinity (eq/kg)  =   1.088e-06
                         Temperature (°C)  =  25.00
                  Electrical balance (eq)  =   1.509e-04
 Percent error, 100*(Cat-|An|)/(Cat+|An|)  =   0.06
                               Iterations  =   4
                                  Total H  = 1.110137e+02
                                  Total O  = 5.550683e+01

----------------------------Distribution of species----------------------------

                                               Log       Log       Log    mole V
   Species          Molality    Activity  Molality  Activity     Gamma   cm³/mol

   OH-             1.342e-07   1.003e-07    -6.872    -6.999    -0.126     (0)  
   H+              1.297e-07   1.000e-07    -6.887    -7.000    -0.113      0.00
   H2O             5.551e+01   9.959e-01     1.744    -0.002     0.000     18.07
Cl            1.200e-01
   Cl-             1.200e-01   9.252e-02    -0.921    -1.034    -0.113     (0)  
   ZnCl+           7.257e-06   5.486e-06    -5.139    -5.261    -0.121     (0)  
   ZnCl2           8.045e-07   8.045e-07    -6.094    -6.094     0.000     (0)  
   ZnOHCl          7.203e-07   7.203e-07    -6.142    -6.142     0.000     (0)  
   ZnCl3-          7.821e-08   5.913e-08    -7.107    -7.228    -0.121     (0)  
   ZnCl4-2         7.720e-09   2.735e-09    -8.112    -8.563    -0.451     (0)  
H(0)          1.377e-25
   H2              6.886e-26   7.079e-26   -25.162   -25.150     0.012     (0)  
Na            1.200e-01
   Na+             1.200e-01   9.253e-02    -0.921    -1.034    -0.113     (0)  
O(0)          0.000e+00
   O2              0.000e+00   0.000e+00   -42.011   -41.999     0.012     (0)  
Zn            7.600e-05
   Zn+2            6.677e-05   2.361e-05    -4.175    -4.627    -0.452     (0)  
   ZnCl+           7.257e-06   5.486e-06    -5.139    -5.261    -0.121     (0)  
   ZnCl2           8.045e-07   8.045e-07    -6.094    -6.094     0.000     (0)  
   ZnOHCl          7.203e-07   7.203e-07    -6.142    -6.142     0.000     (0)  
   ZnOH+           3.557e-07   2.367e-07    -6.449    -6.626    -0.177     (0)  
   ZnCl3-          7.821e-08   5.913e-08    -7.107    -7.228    -0.121     (0)  
   ZnCl4-2         7.720e-09   2.735e-09    -8.112    -8.563    -0.451     (0)  
   Zn(OH)2         3.762e-09   3.762e-09    -8.425    -8.425     0.000     (0)  
   Zn(OH)3-        2.841e-12   1.891e-12   -11.547   -11.723    -0.177     (0)  
   Zn(OH)4-2       3.846e-17   7.550e-18   -16.415   -17.122    -0.707     (0)  

------------------------------Saturation indices-------------------------------

  Phase               SI** log IAP   log K(298 K,   1 atm)

  fix_pH           -7.00     -7.00    0.00  H+
  Halite           -3.67     -2.07    1.60  NaCl
  O2(g)           -39.09     44.00   83.09  O2
  Zincite          -1.96      9.37   11.33  ZnO
  Zn(OH)2          -2.83      9.37   12.20  Zn(OH)2
  Zn(OH)2(am)      -3.10      9.37   12.47  Zn(OH)2
  Zn(OH)2(beta)    -2.38      9.37   11.75  Zn(OH)2
  Zn(OH)2(epsilon)  -2.16      9.37   11.53  Zn(OH)2
  Zn(OH)2(gamma)   -2.36      9.37   11.73  Zn(OH)2
  Zn2(OH)3Cl       -4.48     10.71   15.19  Zn2(OH)3Cl
  Zn5(OH)8Cl2      -7.72     30.78   38.50  Zn5(OH)8Cl2
  ZnCl2           -13.74     -6.69    7.05  ZnCl2
  Znmetal         -38.42    -12.63   25.79  Zn
  ZnO(active)      -1.82      9.37   11.19  ZnO

**For a gas, SI = log10(fugacity). Fugacity = pressure * phi / 1 atm.
  For ideal gases, phi = 1.

------------------------------------------------------
Beginning of initial surface-composition calculations.
------------------------------------------------------

Surface 1.	

Bacta         
	 -4.082e-04  Surface charge, eq
Bacta         
	  4.400e-04  moles
	                                   Mole                     Log
	Species               Moles    Fraction    Molality    Molality

	BactaO-           4.241e-04       0.964   4.241e-04      -3.373
	BactaOZn+         1.587e-05       0.036   1.587e-05      -4.800
	BactaOH           8.461e-08       0.000   8.461e-08      -7.073

Bactb         
	 -5.499e-04  Surface charge, eq
Bactb         
	  5.600e-04  moles
	                                   Mole                     Log
	Species               Moles    Fraction    Molality    Molality

	BactbO-           5.532e-04       0.988   5.532e-04      -3.257
	BactbOH           3.491e-06       0.006   3.491e-06      -5.457
	BactbOZn+         3.280e-06       0.006   3.280e-06      -5.484

Bactc         
	 -6.867e-05  Surface charge, eq
Bactc         
	  2.200e-04  moles
	                                   Mole                     Log
	Species               Moles    Fraction    Molality    Molality

	BactcO-           1.097e-04       0.499   1.097e-04      -3.960
	BactcOH           6.923e-05       0.315   6.923e-05      -4.160
	BactcOZn+         4.105e-05       0.187   4.105e-05      -4.387

Bactd         
	 -2.916e-06  Surface charge, eq
Bactd         
	  3.700e-04  moles
	                                   Mole                     Log
	Species               Moles    Fraction    Molality    Molality

	BactdOH           3.671e-04       0.992   3.671e-04      -3.435
	BactdO-           2.916e-06       0.008   2.916e-06      -5.535

-----------------------------------------
Beginning of batch-reaction calculations.
-----------------------------------------

Reaction step 1.

Using solution 1.	
Using surface 1.	

------------------------------Surface composition------------------------------

Bacta         
	 -4.082e-04  Surface charge, eq
Bacta         
	  4.400e-04  moles
	                                   Mole                     Log
	Species               Moles    Fraction    Molality    Molality

	BactaO-           4.241e-04       0.964   4.241e-04      -3.373
	BactaOZn+         1.587e-05       0.036   1.587e-05      -4.800
	BactaOH           8.461e-08       0.000   8.461e-08      -7.073

Bactb         
	 -5.499e-04  Surface charge, eq
Bactb         
	  5.600e-04  moles
	                                   Mole                     Log
	Species               Moles    Fraction    Molality    Molality

	BactbO-           5.532e-04       0.988   5.532e-04      -3.257
	BactbOH           3.491e-06       0.006   3.491e-06      -5.457
	BactbOZn+         3.280e-06       0.006   3.280e-06      -5.484

Bactc         
	 -6.867e-05  Surface charge, eq
Bactc         
	  2.200e-04  moles
	                                   Mole                     Log
	Species               Moles    Fraction    Molality    Molality

	BactcO-           1.097e-04       0.499   1.097e-04      -3.960
	BactcOH           6.923e-05       0.315   6.923e-05      -4.160
	BactcOZn+         4.105e-05       0.187   4.105e-05      -4.387

Bactd         
	 -2.916e-06  Surface charge, eq
Bactd         
	  3.700e-04  moles
	                                   Mole                     Log
	Species               Moles    Fraction    Molality    Molality

	BactdOH           3.671e-04       0.992   3.671e-04      -3.435
	BactdO-           2.916e-06       0.008   2.916e-06      -5.535

-----------------------------Solution composition------------------------------

	Elements           Molality       Moles

	Cl                1.200e-01   1.200e-01
	Na                1.200e-01   1.200e-01
	Zn                7.600e-05   7.600e-05

----------------------------Description of solution----------------------------

                                       pH  =   7.000      Charge balance
                                       pe  =   4.000      Adjusted to redox equilibrium
                        Activity of water  =   0.996
                 Ionic strength (mol/kgw)  =   1.201e-01
                       Mass of water (kg)  =   1.000e+00
                 Total alkalinity (eq/kg)  =   1.088e-06
                         Temperature (°C)  =  25.00
                  Electrical balance (eq)  =   1.509e-04
 Percent error, 100*(Cat-|An|)/(Cat+|An|)  =   0.06
                               Iterations  =   0
                                  Total H  = 1.110137e+02
                                  Total O  = 5.550683e+01

----------------------------Distribution of species----------------------------

                                               Log       Log       Log    mole V
   Species          Molality    Activity  Molality  Activity     Gamma   cm³/mol

   OH-             1.342e-07   1.003e-07    -6.872    -6.999    -0.126     (0)  
   H+              1.297e-07   1.000e-07    -6.887    -7.000    -0.113      0.00
   H2O             5.551e+01   9.959e-01     1.744    -0.002     0.000     18.07
Cl            1.200e-01
   Cl-             1.200e-01   9.252e-02    -0.921    -1.034    -0.113     (0)  
   ZnCl+           7.257e-06   5.486e-06    -5.139    -5.261    -0.121     (0)  
   ZnCl2           8.045e-07   8.045e-07    -6.094    -6.094     0.000     (0)  
   ZnOHCl          7.203e-07   7.203e-07    -6.142    -6.142     0.000     (0)  
   ZnCl3-          7.821e-08   5.913e-08    -7.107    -7.228    -0.121     (0)  
   ZnCl4-2         7.720e-09   2.735e-09    -8.112    -8.563    -0.451     (0)  
H(0)          1.377e-25
   H2              6.886e-26   7.079e-26   -25.162   -25.150     0.012     (0)  
Na            1.200e-01
   Na+             1.200e-01   9.253e-02    -0.921    -1.034    -0.113     (0)  
O(0)          0.000e+00
   O2              0.000e+00   0.000e+00   -42.011   -41.999     0.012     (0)  
Zn            7.600e-05
   Zn+2            6.677e-05   2.361e-05    -4.175    -4.627    -0.452     (0)  
   ZnCl+           7.257e-06   5.486e-06    -5.139    -5.261    -0.121     (0)  
   ZnCl2           8.045e-07   8.045e-07    -6.094    -6.094     0.000     (0)  
   ZnOHCl          7.203e-07   7.203e-07    -6.142    -6.142     0.000     (0)  
   ZnOH+           3.557e-07   2.367e-07    -6.449    -6.626    -0.177     (0)  
   ZnCl3-          7.821e-08   5.913e-08    -7.107    -7.228    -0.121     (0)  
   ZnCl4-2         7.720e-09   2.735e-09    -8.112    -8.563    -0.451     (0)  
   Zn(OH)2         3.762e-09   3.762e-09    -8.425    -8.425     0.000     (0)  
   Zn(OH)3-        2.841e-12   1.891e-12   -11.547   -11.723    -0.177     (0)  
   Zn(OH)4-2       3.846e-17   7.550e-18   -16.415   -17.122    -0.707     (0)  

------------------------------Saturation indices-------------------------------

  Phase               SI** log IAP   log K(298 K,   1 atm)

  fix_pH           -7.00     -7.00    0.00  H+
  Halite           -3.67     -2.07    1.60  NaCl
  O2(g)           -39.09     44.00   83.09  O2
  Zincite          -1.96      9.37   11.33  ZnO
  Zn(OH)2          -2.83      9.37   12.20  Zn(OH)2
  Zn(OH)2(am)      -3.10      9.37   12.47  Zn(OH)2
  Zn(OH)2(beta)    -2.38      9.37   11.75  Zn(OH)2
  Zn(OH)2(epsilon)  -2.16      9.37   11.53  Zn(OH)2
  Zn(OH)2(gamma)   -2.36      9.37   11.73  Zn(OH)2
  Zn2(OH)3Cl       -4.48     10.71   15.19  Zn2(OH)3Cl
  Zn5(OH)8Cl2      -7.72     30.78   38.50  Zn5(OH)8Cl2
  ZnCl2           -13.74     -6.69    7.05  ZnCl2
  Znmetal         -38.42    -12.63   25.79  Zn
  ZnO(active)      -1.82      9.37   11.19  ZnO

**For a gas, SI = log10(fugacity). Fugacity = pressure * phi / 1 atm.
  For ideal gases, phi = 1.

------------------
End of simulation.
------------------

------------------------------------
Reading input data for simulation 2.
------------------------------------

	USE SOLUTION 1
	USE SURFACE 1
	EQUILIBRIUM_PHASES 1
	CO2(g) -3.5 10
	fix_pH -4.5 HCl 10
	END
-----------------------------------------
Beginning of batch-reaction calculations.
-----------------------------------------

Reaction step 1.

Using solution 1.	
Using surface 1.	
Using pure phase assemblage 1.	

-------------------------------Phase assemblage--------------------------------

                                                      Moles in assemblage
Phase               SI  log IAP  log K(T, P)   Initial       Final       Delta

CO2(g)           -3.50   -21.65    -18.15    1.000e+01   1.000e+01  -1.097e-05
fix_pH           -4.50    -4.50      0.00
	 HCl                is reactant       1.000e+01   9.999e+00  -5.870e-04

------------------------------Surface composition------------------------------

Bacta         
	 -3.713e-04  Surface charge, eq
Bacta         
	  4.400e-04  moles
	                                   Mole                     Log
	Species               Moles    Fraction    Molality    Molality

	BactaO-           3.932e-04       0.894   3.932e-04      -3.405
	BactaOH           2.481e-05       0.056   2.481e-05      -4.605
	BactaOZn+         2.196e-05       0.050   2.196e-05      -4.658

Bactb         
	 -1.848e-04  Surface charge, eq
Bactb         
	  5.600e-04  moles
	                                   Mole                     Log
	Species               Moles    Fraction    Molality    Molality

	BactbOH           3.719e-04       0.664   3.719e-04      -3.430
	BactbO-           1.864e-04       0.333   1.864e-04      -3.730
	BactbOZn+         1.650e-06       0.003   1.650e-06      -5.783

Bactc         
	 -4.832e-07  Surface charge, eq
Bactc         
	  2.200e-04  moles
	                                   Mole                     Log
	Species               Moles    Fraction    Molality    Molality

	BactcOH           2.183e-04       0.992   2.183e-04      -3.661
	BactcO-           1.094e-06       0.005   1.094e-06      -5.961
	BactcOZn+         6.109e-07       0.003   6.109e-07      -6.214

Bactd         
	 -9.294e-09  Surface charge, eq
Bactd         
	  3.700e-04  moles
	                                   Mole                     Log
	Species               Moles    Fraction    Molality    Molality

	BactdOH           3.700e-04       1.000   3.700e-04      -3.432
	BactdO-           9.294e-09       0.000   9.294e-09      -8.032

-----------------------------Solution composition------------------------------

	Elements           Molality       Moles

	C                 1.097e-05   1.097e-05
	Cl                1.206e-01   1.206e-01
	Na                1.200e-01   1.200e-01
	Zn                1.120e-04   1.120e-04

----------------------------Description of solution----------------------------

                                       pH  =   4.500      Charge balance
                                       pe  =   1.013      Adjusted to redox equilibrium
                        Activity of water  =   0.996
                 Ionic strength (mol/kgw)  =   1.205e-01
                       Mass of water (kg)  =   1.000e+00
                 Total alkalinity (eq/kg)  =  -4.081e-05
                       Total CO2 (mol/kg)  =   1.097e-05
                         Temperature (°C)  =  25.00
                  Electrical balance (eq)  =  -3.223e-04
 Percent error, 100*(Cat-|An|)/(Cat+|An|)  =  -0.13
                               Iterations  =  14
                                  Total H  = 1.110137e+02
                                  Total O  = 5.550686e+01

----------------------------Distribution of species----------------------------

                                               Log       Log       Log    mole V
   Species          Molality    Activity  Molality  Activity     Gamma   cm³/mol

   H+              4.102e-05   3.162e-05    -4.387    -4.500    -0.113      0.00
   OH-             4.244e-10   3.171e-10    -9.372    -9.499    -0.127     (0)  
   H2O             5.551e+01   9.959e-01     1.744    -0.002     0.000     18.07
C(4)          1.097e-05
   H2CO3           1.077e-05   1.077e-05    -4.968    -4.968     0.000     (0)  
   HCO3-           1.949e-07   1.514e-07    -6.710    -6.820    -0.110     (0)  
   NaHCO3          7.878e-09   7.878e-09    -8.104    -8.104     0.000     (0)  
   ZnHCO3+         2.536e-10   1.687e-10    -9.596    -9.773    -0.177     (0)  
   CO3-2           6.356e-13   2.245e-13   -12.197   -12.649    -0.452     (0)  
   NaCO3-          4.977e-13   3.867e-13   -12.303   -12.413    -0.110     (0)  
   ZnCO3           4.552e-13   4.552e-13   -12.342   -12.342     0.000     (0)  
Cl            1.206e-01
   Cl-             1.206e-01   9.295e-02    -0.919    -1.032    -0.113     (0)  
   ZnCl+           1.088e-05   8.226e-06    -4.963    -5.085    -0.122     (0)  
   ZnCl2           1.212e-06   1.212e-06    -5.917    -5.917     0.000     (0)  
   ZnCl3-          1.184e-07   8.948e-08    -6.927    -7.048    -0.122     (0)  
   ZnCl4-2         1.175e-08   4.159e-09    -7.930    -8.381    -0.451     (0)  
   ZnOHCl          3.415e-09   3.415e-09    -8.467    -8.467     0.000     (0)  
H(0)          1.298e-14
   H2              6.488e-15   6.671e-15   -14.188   -14.176     0.012     (0)  
Na            1.200e-01
   Na+             1.200e-01   9.251e-02    -0.921    -1.034    -0.113     (0)  
   NaHCO3          7.878e-09   7.878e-09    -8.104    -8.104     0.000     (0)  
   NaCO3-          4.977e-13   3.867e-13   -12.303   -12.413    -0.110     (0)  
O(0)          0.000e+00
   O2              0.000e+00   0.000e+00   -63.959   -63.947     0.012     (0)  
Zn            1.120e-04
   Zn+2            9.975e-05   3.523e-05    -4.001    -4.453    -0.452     (0)  
   ZnCl+           1.088e-05   8.226e-06    -4.963    -5.085    -0.122     (0)  
   ZnCl2           1.212e-06   1.212e-06    -5.917    -5.917     0.000     (0)  
   ZnCl3-          1.184e-07   8.948e-08    -6.927    -7.048    -0.122     (0)  
   ZnCl4-2         1.175e-08   4.159e-09    -7.930    -8.381    -0.451     (0)  
   ZnOHCl          3.415e-09   3.415e-09    -8.467    -8.467     0.000     (0)  
   ZnOH+           1.680e-09   1.117e-09    -8.775    -8.952    -0.177     (0)  
   ZnHCO3+         2.536e-10   1.687e-10    -9.596    -9.773    -0.177     (0)  
   ZnCO3           4.552e-13   4.552e-13   -12.342   -12.342     0.000     (0)  
   Zn(OH)2         5.615e-14   5.615e-14   -13.251   -13.251     0.000     (0)  
   Zn(OH)3-        1.342e-19   8.925e-20   -18.872   -19.049    -0.177     (0)  
   Zn(OH)4-2       5.755e-27   1.127e-27   -26.240   -26.948    -0.708     (0)  

------------------------------Saturation indices-------------------------------

  Phase               SI** log IAP   log K(298 K,   1 atm)

  CH4(g)          -24.70    -65.75  -41.05  CH4
  CO2(g)           -3.50    -21.65  -18.15  CO2
  fix_pH           -4.50     -4.50    0.00  H+
  Halite           -3.67     -2.07    1.60  NaCl
  Natron          -13.42    -14.73   -1.31  Na2CO3:10H2O
  O2(g)           -61.04     22.05   83.09  O2
  Smithsonite      -7.10    -17.10  -10.00  ZnCO3
  Thermonatrite   -15.36    -14.72    0.64  Na2CO3:H2O
  Zincite          -6.79      4.55   11.33  ZnO
  Zn(OH)2          -7.66      4.54   12.20  Zn(OH)2
  Zn(OH)2(am)      -7.93      4.54   12.47  Zn(OH)2
  Zn(OH)2(beta)    -7.21      4.54   11.75  Zn(OH)2
  Zn(OH)2(epsilon)  -6.99      4.54   11.53  Zn(OH)2
  Zn(OH)2(gamma)   -7.19      4.54   11.73  Zn(OH)2
  Zn2(OH)3Cl      -11.63      3.56   15.19  Zn2(OH)3Cl
  Zn5(OH)8Cl2     -26.84     11.66   38.50  Zn5(OH)8Cl2
  ZnCl2           -13.57     -6.52    7.05  ZnCl2
  ZnCO3:1H2O       -6.84    -17.10  -10.26  ZnCO3:1H2O
  Znmetal         -32.27     -6.48   25.79  Zn
  ZnO(active)      -6.64      4.55   11.19  ZnO

**For a gas, SI = log10(fugacity). Fugacity = pressure * phi / 1 atm.
  For ideal gases, phi = 1.

------------------
End of simulation.
------------------

------------------------------------
Reading input data for simulation 3.
------------------------------------

	USE SOLUTION 1
	USE SURFACE 1
	EQUILIBRIUM_PHASES 1
	CO2(g) -3.5 10
	fix_pH -5.0 HCl 10
	END
-----------------------------------------
Beginning of batch-reaction calculations.
-----------------------------------------

Reaction step 1.

Using solution 1.	
Using surface 1.	
Using pure phase assemblage 1.	

-------------------------------Phase assemblage--------------------------------

                                                      Moles in assemblage
Phase               SI  log IAP  log K(T, P)   Initial       Final       Delta

CO2(g)           -3.50   -21.65    -18.15    1.000e+01   1.000e+01  -1.141e-05
fix_pH           -5.00    -5.00      0.00
	 HCl                is reactant       1.000e+01   1.000e+01  -3.819e-04

------------------------------Surface composition------------------------------

Bacta         
	 -3.872e-04  Surface charge, eq
Bacta         
	  4.400e-04  moles
	                                   Mole                     Log
	Species               Moles    Fraction    Molality    Molality

	BactaO-           4.095e-04       0.931   4.095e-04      -3.388
	BactaOZn+         2.229e-05       0.051   2.229e-05      -4.652
	BactaOH           8.171e-06       0.019   8.171e-06      -5.088

Bactb         
	 -3.386e-04  Surface charge, eq
Bactb         
	  5.600e-04  moles
	                                   Mole                     Log
	Species               Moles    Fraction    Molality    Molality

	BactbO-           3.416e-04       0.610   3.416e-04      -3.467
	BactbOH           2.155e-04       0.385   2.155e-04      -3.667
	BactbOZn+         2.946e-06       0.005   2.946e-06      -5.531

Bactc         
	 -1.551e-06  Surface charge, eq
Bactc         
	  2.200e-04  moles
	                                   Mole                     Log
	Species               Moles    Fraction    Molality    Molality

	BactcOH           2.147e-04       0.976   2.147e-04      -3.668
	BactcO-           3.403e-06       0.015   3.403e-06      -5.468
	BactcOZn+         1.852e-06       0.008   1.852e-06      -5.732

Bactd         
	 -2.939e-08  Surface charge, eq
Bactd         
	  3.700e-04  moles
	                                   Mole                     Log
	Species               Moles    Fraction    Molality    Molality

	BactdOH           3.700e-04       1.000   3.700e-04      -3.432
	BactdO-           2.939e-08       0.000   2.939e-08      -7.532

-----------------------------Solution composition------------------------------

	Elements           Molality       Moles

	C                 1.141e-05   1.141e-05
	Cl                1.204e-01   1.204e-01
	Na                1.200e-01   1.200e-01
	Zn                1.091e-04   1.091e-04

----------------------------Description of solution----------------------------

                                       pH  =   5.000      Charge balance
                                       pe  =   0.513      Adjusted to redox equilibrium
                        Activity of water  =   0.996
                 Ionic strength (mol/kgw)  =   1.204e-01
                       Mass of water (kg)  =   1.000e+00
                 Total alkalinity (eq/kg)  =  -1.231e-05
                       Total CO2 (mol/kg)  =   1.141e-05
                         Temperature (°C)  =  25.00
                  Electrical balance (eq)  =  -1.514e-04
 Percent error, 100*(Cat-|An|)/(Cat+|An|)  =  -0.06
                               Iterations  =  14
                                  Total H  = 1.110137e+02
                                  Total O  = 5.550686e+01

----------------------------Distribution of species----------------------------

                                               Log       Log       Log    mole V
   Species          Molality    Activity  Molality  Activity     Gamma   cm³/mol

   H+              1.297e-05   1.000e-05    -4.887    -5.000    -0.113      0.00
   OH-             1.342e-09   1.003e-09    -8.872    -8.999    -0.127     (0)  
   H2O             5.551e+01   9.959e-01     1.744    -0.002     0.000     18.07
C(4)          1.141e-05
   H2CO3           1.077e-05   1.077e-05    -4.968    -4.968     0.000     (0)  
   HCO3-           6.163e-07   4.789e-07    -6.210    -6.320    -0.110     (0)  
   NaHCO3          2.491e-08   2.491e-08    -7.604    -7.604     0.000     (0)  
   ZnHCO3+         7.816e-10   5.200e-10    -9.107    -9.284    -0.177     (0)  
   CO3-2           6.354e-12   2.245e-12   -11.197   -11.649    -0.452     (0)  
   NaCO3-          4.977e-12   3.868e-12   -11.303   -11.413    -0.110     (0)  
   ZnCO3           4.436e-12   4.436e-12   -11.353   -11.353     0.000     (0)  
Cl            1.204e-01
   Cl-             1.204e-01   9.280e-02    -0.919    -1.032    -0.113     (0)  
   ZnCl+           1.059e-05   8.005e-06    -4.975    -5.097    -0.122     (0)  
   ZnCl2           1.177e-06   1.177e-06    -5.929    -5.929     0.000     (0)  
   ZnCl3-          1.148e-07   8.679e-08    -6.940    -7.062    -0.122     (0)  
   ZnCl4-2         1.137e-08   4.027e-09    -7.944    -8.395    -0.451     (0)  
   ZnOHCl          1.051e-08   1.051e-08    -7.978    -7.978     0.000     (0)  
H(0)          1.298e-14
   H2              6.492e-15   6.675e-15   -14.188   -14.176     0.012     (0)  
Na            1.200e-01
   Na+             1.200e-01   9.252e-02    -0.921    -1.034    -0.113     (0)  
   NaHCO3          2.491e-08   2.491e-08    -7.604    -7.604     0.000     (0)  
   NaCO3-          4.977e-12   3.868e-12   -11.303   -11.413    -0.110     (0)  
O(0)          0.000e+00
   O2              0.000e+00   0.000e+00   -63.960   -63.947     0.012     (0)  
Zn            1.091e-04
   Zn+2            9.720e-05   3.434e-05    -4.012    -4.464    -0.452     (0)  
   ZnCl+           1.059e-05   8.005e-06    -4.975    -5.097    -0.122     (0)  
   ZnCl2           1.177e-06   1.177e-06    -5.929    -5.929     0.000     (0)  
   ZnCl3-          1.148e-07   8.679e-08    -6.940    -7.062    -0.122     (0)  
   ZnCl4-2         1.137e-08   4.027e-09    -7.944    -8.395    -0.451     (0)  
   ZnOHCl          1.051e-08   1.051e-08    -7.978    -7.978     0.000     (0)  
   ZnOH+           5.176e-09   3.444e-09    -8.286    -8.463    -0.177     (0)  
   ZnHCO3+         7.816e-10   5.200e-10    -9.107    -9.284    -0.177     (0)  
   ZnCO3           4.436e-12   4.436e-12   -11.353   -11.353     0.000     (0)  
   Zn(OH)2         5.473e-13   5.473e-13   -12.262   -12.262     0.000     (0)  
   Zn(OH)3-        4.135e-18   2.751e-18   -17.384   -17.561    -0.177     (0)  
   Zn(OH)4-2       5.605e-25   1.098e-25   -24.251   -24.959    -0.708     (0)  

------------------------------Saturation indices-------------------------------

  Phase               SI** log IAP   log K(298 K,   1 atm)

  CH4(g)          -24.70    -65.75  -41.05  CH4
  CO2(g)           -3.50    -21.65  -18.15  CO2
  fix_pH           -5.00     -5.00    0.00  H+
  Halite           -3.67     -2.07    1.60  NaCl
  Natron          -12.42    -13.73   -1.31  Na2CO3:10H2O
  O2(g)           -61.04     22.05   83.09  O2
  Smithsonite      -6.11    -16.11  -10.00  ZnCO3
  Thermonatrite   -14.36    -13.72    0.64  Na2CO3:H2O
  Zincite          -5.80      5.53   11.33  ZnO
  Zn(OH)2          -6.67      5.53   12.20  Zn(OH)2
  Zn(OH)2(am)      -6.94      5.53   12.47  Zn(OH)2
  Zn(OH)2(beta)    -6.22      5.53   11.75  Zn(OH)2
  Zn(OH)2(epsilon)  -6.00      5.53   11.53  Zn(OH)2
  Zn(OH)2(gamma)   -6.20      5.53   11.73  Zn(OH)2
  Zn2(OH)3Cl      -10.16      5.03   15.19  Zn2(OH)3Cl
  Zn5(OH)8Cl2     -22.90     15.60   38.50  Zn5(OH)8Cl2
  ZnCl2           -13.58     -6.53    7.05  ZnCl2
  ZnCO3:1H2O       -5.85    -16.11  -10.26  ZnCO3:1H2O
  Znmetal         -31.28     -5.49   25.79  Zn
  ZnO(active)      -5.65      5.53   11.19  ZnO

**For a gas, SI = log10(fugacity). Fugacity = pressure * phi / 1 atm.
  For ideal gases, phi = 1.

------------------
End of simulation.
------------------

------------------------------------
Reading input data for simulation 4.
------------------------------------

	USE SOLUTION 1
	USE SURFACE 1
	EQUILIBRIUM_PHASES 1
	CO2(g) -3.5 10
	fix_pH -5.5 HCl 10
	END
-----------------------------------------
Beginning of batch-reaction calculations.
-----------------------------------------

Reaction step 1.

Using solution 1.	
Using surface 1.	
Using pure phase assemblage 1.	

-------------------------------Phase assemblage--------------------------------

                                                      Moles in assemblage
Phase               SI  log IAP  log K(T, P)   Initial       Final       Delta

CO2(g)           -3.50   -21.65    -18.15    1.000e+01   1.000e+01  -1.280e-05
fix_pH           -5.50    -5.50      0.00
	 HCl                is reactant       1.000e+01   1.000e+01  -2.326e-04

------------------------------Surface composition------------------------------

Bacta         
	 -3.938e-04  Surface charge, eq
Bacta         
	  4.400e-04  moles
	                                   Mole                     Log
	Species               Moles    Fraction    Molality    Molality

	BactaO-           4.156e-04       0.944   4.156e-04      -3.381
	BactaOZn+         2.180e-05       0.050   2.180e-05      -4.662
	BactaOH           2.622e-06       0.006   2.622e-06      -5.581

Bactb         
	 -4.598e-04  Surface charge, eq
Bactb         
	  5.600e-04  moles
	                                   Mole                     Log
	Species               Moles    Fraction    Molality    Molality

	BactbO-           4.636e-04       0.828   4.636e-04      -3.334
	BactbOH           9.251e-05       0.165   9.251e-05      -4.034
	BactbOZn+         3.855e-06       0.007   3.855e-06      -5.414

Bactc         
	 -4.870e-06  Surface charge, eq
Bactc         
	  2.200e-04  moles
	                                   Mole                     Log
	Species               Moles    Fraction    Molality    Molality

	BactcOH           2.044e-04       0.929   2.044e-04      -3.690
	BactcO-           1.024e-05       0.047   1.024e-05      -4.990
	BactcOZn+         5.374e-06       0.024   5.374e-06      -5.270

Bactd         
	 -9.292e-08  Surface charge, eq
Bactd         
	  3.700e-04  moles
	                                   Mole                     Log
	Species               Moles    Fraction    Molality    Molality

	BactdOH           3.699e-04       1.000   3.699e-04      -3.432
	BactdO-           9.292e-08       0.000   9.292e-08      -7.032

-----------------------------Solution composition------------------------------

	Elements           Molality       Moles

	C                 1.280e-05   1.280e-05
	Cl                1.202e-01   1.202e-01
	Na                1.200e-01   1.200e-01
	Zn                1.052e-04   1.052e-04

----------------------------Description of solution----------------------------

                                       pH  =   5.500      Charge balance
                                       pe  =   0.014      Adjusted to redox equilibrium
                        Activity of water  =   0.996
                 Ionic strength (mol/kgw)  =   1.203e-01
                       Mass of water (kg)  =   1.000e+00
                 Total alkalinity (eq/kg)  =  -2.019e-06
                       Total CO2 (mol/kg)  =   1.280e-05
                         Temperature (°C)  =  25.00
                  Electrical balance (eq)  =  -2.029e-05
 Percent error, 100*(Cat-|An|)/(Cat+|An|)  =  -0.01
                               Iterations  =  13
                                  Total H  = 1.110137e+02
                                  Total O  = 5.550686e+01

----------------------------Distribution of species----------------------------

                                               Log       Log       Log    mole V
   Species          Molality    Activity  Molality  Activity     Gamma   cm³/mol

   H+              4.101e-06   3.162e-06    -5.387    -5.500    -0.113      0.00
   OH-             4.243e-09   3.171e-09    -8.372    -8.499    -0.126     (0)  
   H2O             5.551e+01   9.959e-01     1.744    -0.002     0.000     18.07
C(4)          1.280e-05
   H2CO3           1.077e-05   1.077e-05    -4.968    -4.968     0.000     (0)  
   HCO3-           1.949e-06   1.514e-06    -5.710    -5.820    -0.110     (0)  
   NaHCO3          7.879e-08   7.879e-08    -7.104    -7.104     0.000     (0)  
   ZnHCO3+         2.382e-09   1.585e-09    -8.623    -8.800    -0.177     (0)  
   CO3-2           6.353e-11   2.245e-11   -10.197   -10.649    -0.452     (0)  
   NaCO3-          4.977e-11   3.868e-11   -10.303   -10.413    -0.110     (0)  
   ZnCO3           4.276e-11   4.276e-11   -10.369   -10.369     0.000     (0)  
Cl            1.202e-01
   Cl-             1.202e-01   9.269e-02    -0.920    -1.033    -0.113     (0)  
   ZnCl+           1.020e-05   7.707e-06    -4.992    -5.113    -0.122     (0)  
   ZnCl2           1.132e-06   1.132e-06    -5.946    -5.946     0.000     (0)  
   ZnCl3-          1.103e-07   8.336e-08    -6.958    -7.079    -0.122     (0)  
   ZnOHCl          3.200e-08   3.200e-08    -7.495    -7.495     0.000     (0)  
   ZnCl4-2         1.091e-08   3.864e-09    -7.962    -8.413    -0.451     (0)  
H(0)          1.294e-14
   H2              6.469e-15   6.651e-15   -14.189   -14.177     0.012     (0)  
Na            1.200e-01
   Na+             1.200e-01   9.252e-02    -0.921    -1.034    -0.113     (0)  
   NaHCO3          7.879e-08   7.879e-08    -7.104    -7.104     0.000     (0)  
   NaCO3-          4.977e-11   3.868e-11   -10.303   -10.413    -0.110     (0)  
O(0)          0.000e+00
   O2              0.000e+00   0.000e+00   -63.956   -63.944     0.012     (0)  
Zn            1.052e-04
   Zn+2            9.367e-05   3.310e-05    -4.028    -4.480    -0.452     (0)  
   ZnCl+           1.020e-05   7.707e-06    -4.992    -5.113    -0.122     (0)  
   ZnCl2           1.132e-06   1.132e-06    -5.946    -5.946     0.000     (0)  
   ZnCl3-          1.103e-07   8.336e-08    -6.958    -7.079    -0.122     (0)  
   ZnOHCl          3.200e-08   3.200e-08    -7.495    -7.495     0.000     (0)  
   ZnOH+           1.577e-08   1.050e-08    -7.802    -7.979    -0.177     (0)  
   ZnCl4-2         1.091e-08   3.864e-09    -7.962    -8.413    -0.451     (0)  
   ZnHCO3+         2.382e-09   1.585e-09    -8.623    -8.800    -0.177     (0)  
   ZnCO3           4.276e-11   4.276e-11   -10.369   -10.369     0.000     (0)  
   Zn(OH)2         5.276e-12   5.276e-12   -11.278   -11.278     0.000     (0)  
   Zn(OH)3-        1.260e-16   8.385e-17   -15.900   -16.076    -0.177     (0)  
   Zn(OH)4-2       5.399e-23   1.059e-23   -22.268   -22.975    -0.708     (0)  

------------------------------Saturation indices-------------------------------

  Phase               SI** log IAP   log K(298 K,   1 atm)

  CH4(g)          -24.71    -65.75  -41.05  CH4
  CO2(g)           -3.50    -21.65  -18.15  CO2
  fix_pH           -5.50     -5.50    0.00  H+
  Halite           -3.67     -2.07    1.60  NaCl
  Natron          -11.42    -12.73   -1.31  Na2CO3:10H2O
  O2(g)           -61.04     22.05   83.09  O2
  Smithsonite      -5.13    -15.13  -10.00  ZnCO3
  Thermonatrite   -13.36    -12.72    0.64  Na2CO3:H2O
  Zincite          -4.82      6.52   11.33  ZnO
  Zn(OH)2          -5.68      6.52   12.20  Zn(OH)2
  Zn(OH)2(am)      -5.96      6.52   12.47  Zn(OH)2
  Zn(OH)2(beta)    -5.24      6.52   11.75  Zn(OH)2
  Zn(OH)2(epsilon)  -5.02      6.52   11.53  Zn(OH)2
  Zn(OH)2(gamma)   -5.22      6.52   11.73  Zn(OH)2
  Zn2(OH)3Cl       -8.69      6.50   15.19  Zn2(OH)3Cl
  Zn5(OH)8Cl2     -18.98     19.52   38.50  Zn5(OH)8Cl2
  ZnCl2           -13.60     -6.55    7.05  ZnCl2
  ZnCO3:1H2O       -4.87    -15.13  -10.26  ZnCO3:1H2O
  Znmetal         -30.30     -4.51   25.79  Zn
  ZnO(active)      -4.67      6.52   11.19  ZnO

**For a gas, SI = log10(fugacity). Fugacity = pressure * phi / 1 atm.
  For ideal gases, phi = 1.

------------------
End of simulation.
------------------

------------------------------------
Reading input data for simulation 5.
------------------------------------

	USE SOLUTION 1
	USE SURFACE 1
	EQUILIBRIUM_PHASES 1
	CO2(g) -3.5 10
	fix_pH -6.0 NaOH 10
	END
-----------------------------------------
Beginning of batch-reaction calculations.
-----------------------------------------

Reaction step 1.

Using solution 1.	
Using surface 1.	
Using pure phase assemblage 1.	

-------------------------------Phase assemblage--------------------------------

                                                      Moles in assemblage
Phase               SI  log IAP  log K(T, P)   Initial       Final       Delta

CO2(g)           -3.50   -21.65    -18.15    1.000e+01   1.000e+01  -1.719e-05
fix_pH           -6.00    -6.00      0.00
	 NaOH               is reactant       1.000e+01   1.000e+01   1.375e-04

------------------------------Surface composition------------------------------

Bacta         
	 -3.983e-04  Surface charge, eq
Bacta         
	  4.400e-04  moles
	                                   Mole                     Log
	Species               Moles    Fraction    Molality    Molality

	BactaO-           4.187e-04       0.952   4.187e-04      -3.378
	BactaOZn+         2.045e-05       0.046   2.045e-05      -4.689
	BactaOH           8.355e-07       0.002   8.355e-07      -6.078

Bactb         
	 -5.189e-04  Surface charge, eq
Bactb         
	  5.600e-04  moles
	                                   Mole                     Log
	Species               Moles    Fraction    Molality    Molality

	BactbO-           5.230e-04       0.934   5.230e-04      -3.282
	BactbOH           3.300e-05       0.059   3.300e-05      -4.482
	BactbOZn+         4.047e-06       0.007   4.047e-06      -5.393

Bactc         
	 -1.444e-05  Surface charge, eq
Bactc         
	  2.200e-04  moles
	                                   Mole                     Log
	Species               Moles    Fraction    Molality    Molality

	BactcOH           1.780e-04       0.809   1.780e-04      -3.750
	BactcO-           2.821e-05       0.128   2.821e-05      -4.550
	BactcOZn+         1.378e-05       0.063   1.378e-05      -4.861

Bactd         
	 -2.937e-07  Surface charge, eq
Bactd         
	  3.700e-04  moles
	                                   Mole                     Log
	Species               Moles    Fraction    Molality    Molality

	BactdOH           3.697e-04       0.999   3.697e-04      -3.432
	BactdO-           2.937e-07       0.001   2.937e-07      -6.532

-----------------------------Solution composition------------------------------

	Elements           Molality       Moles

	C                 1.719e-05   1.719e-05
	Cl                1.200e-01   1.200e-01
	Na                1.199e-01   1.199e-01
	Zn                9.793e-05   9.793e-05

----------------------------Description of solution----------------------------

                                       pH  =   6.000      Charge balance
                                       pe  =  -0.487      Adjusted to redox equilibrium
                        Activity of water  =   0.996
                 Ionic strength (mol/kgw)  =   1.201e-01
                       Mass of water (kg)  =   1.000e+00
                 Total alkalinity (eq/kg)  =   5.278e-06
                       Total CO2 (mol/kg)  =   1.719e-05
                         Temperature (°C)  =  25.00
                  Electrical balance (eq)  =   5.310e-05
 Percent error, 100*(Cat-|An|)/(Cat+|An|)  =   0.02
                               Iterations  =  13
                                  Total H  = 1.110134e+02
                                  Total O  = 5.550673e+01

----------------------------Distribution of species----------------------------

                                               Log       Log       Log    mole V
   Species          Molality    Activity  Molality  Activity     Gamma   cm³/mol

   H+              1.297e-06   1.000e-06    -5.887    -6.000    -0.113      0.00
   OH-             1.342e-08   1.003e-08    -7.872    -7.999    -0.126     (0)  
   H2O             5.551e+01   9.959e-01     1.744    -0.002     0.000     18.07
C(4)          1.719e-05
   H2CO3           1.077e-05   1.077e-05    -4.968    -4.968     0.000     (0)  
   HCO3-           6.162e-06   4.789e-06    -5.210    -5.320    -0.109     (0)  
   NaHCO3          2.489e-07   2.489e-07    -6.604    -6.604     0.000     (0)  
   ZnHCO3+         7.009e-09   4.666e-09    -8.154    -8.331    -0.177     (0)  
   CO3-2           6.350e-10   2.245e-10    -9.197    -9.649    -0.452     (0)  
   NaCO3-          4.971e-10   3.864e-10    -9.304    -9.413    -0.109     (0)  
   ZnCO3           3.980e-10   3.980e-10    -9.400    -9.400     0.000     (0)  
Cl            1.200e-01
   Cl-             1.200e-01   9.252e-02    -0.921    -1.034    -0.113     (0)  
   ZnCl+           9.471e-06   7.160e-06    -5.024    -5.145    -0.121     (0)  
   ZnCl2           1.050e-06   1.050e-06    -5.979    -5.979     0.000     (0)  
   ZnCl3-          1.021e-07   7.717e-08    -6.991    -7.113    -0.121     (0)  
   ZnOHCl          9.401e-08   9.401e-08    -7.027    -7.027     0.000     (0)  
   ZnCl4-2         1.008e-08   3.570e-09    -7.997    -8.447    -0.451     (0)  
H(0)          1.295e-14
   H2              6.475e-15   6.657e-15   -14.189   -14.177     0.012     (0)  
Na            1.199e-01
   Na+             1.199e-01   9.243e-02    -0.921    -1.034    -0.113     (0)  
   NaHCO3          2.489e-07   2.489e-07    -6.604    -6.604     0.000     (0)  
   NaCO3-          4.971e-10   3.864e-10    -9.304    -9.413    -0.109     (0)  
O(0)          0.000e+00
   O2              0.000e+00   0.000e+00   -63.957   -63.945     0.012     (0)  
Zn            9.793e-05
   Zn+2            8.715e-05   3.081e-05    -4.060    -4.511    -0.452     (0)  
   ZnCl+           9.471e-06   7.160e-06    -5.024    -5.145    -0.121     (0)  
   ZnCl2           1.050e-06   1.050e-06    -5.979    -5.979     0.000     (0)  
   ZnCl3-          1.021e-07   7.717e-08    -6.991    -7.113    -0.121     (0)  
   ZnOHCl          9.401e-08   9.401e-08    -7.027    -7.027     0.000     (0)  
   ZnOH+           4.642e-08   3.090e-08    -7.333    -7.510    -0.177     (0)  
   ZnCl4-2         1.008e-08   3.570e-09    -7.997    -8.447    -0.451     (0)  
   ZnHCO3+         7.009e-09   4.666e-09    -8.154    -8.331    -0.177     (0)  
   ZnCO3           3.980e-10   3.980e-10    -9.400    -9.400     0.000     (0)  
   Zn(OH)2         4.911e-11   4.911e-11   -10.309   -10.309     0.000     (0)  
   Zn(OH)3-        3.708e-15   2.468e-15   -14.431   -14.608    -0.177     (0)  
   Zn(OH)4-2       5.019e-21   9.853e-22   -20.299   -21.006    -0.707     (0)  

------------------------------Saturation indices-------------------------------

  Phase               SI** log IAP   log K(298 K,   1 atm)

  CH4(g)          -24.71    -65.75  -41.05  CH4
  CO2(g)           -3.50    -21.65  -18.15  CO2
  fix_pH           -6.00     -6.00    0.00  H+
  Halite           -3.67     -2.07    1.60  NaCl
  Natron          -10.42    -11.73   -1.31  Na2CO3:10H2O
  O2(g)           -61.04     22.05   83.09  O2
  Smithsonite      -4.16    -14.16  -10.00  ZnCO3
  Thermonatrite   -12.36    -11.72    0.64  Na2CO3:H2O
  Zincite          -3.85      7.49   11.33  ZnO
  Zn(OH)2          -4.71      7.49   12.20  Zn(OH)2
  Zn(OH)2(am)      -4.99      7.49   12.47  Zn(OH)2
  Zn(OH)2(beta)    -4.27      7.49   11.75  Zn(OH)2
  Zn(OH)2(epsilon)  -4.05      7.49   11.53  Zn(OH)2
  Zn(OH)2(gamma)   -4.25      7.49   11.73  Zn(OH)2
  Zn2(OH)3Cl       -7.25      7.94   15.19  Zn2(OH)3Cl
  Zn5(OH)8Cl2     -15.14     23.36   38.50  Zn5(OH)8Cl2
  ZnCl2           -13.63     -6.58    7.05  ZnCl2
  ZnCO3:1H2O       -3.90    -14.16  -10.26  ZnCO3:1H2O
  Znmetal         -29.33     -3.54   25.79  Zn
  ZnO(active)      -3.70      7.49   11.19  ZnO

**For a gas, SI = log10(fugacity). Fugacity = pressure * phi / 1 atm.
  For ideal gases, phi = 1.

------------------
End of simulation.
------------------

------------------------------------
Reading input data for simulation 6.
------------------------------------

	USE SOLUTION 1
	USE SURFACE 1
	EQUILIBRIUM_PHASES 1
	CO2(g) -3.5 10
	fix_pH -6.5 NaOH 10
	END
-----------------------------------------
Beginning of batch-reaction calculations.
-----------------------------------------

Reaction step 1.

Using solution 1.	
Using surface 1.	
Using pure phase assemblage 1.	

-------------------------------Phase assemblage--------------------------------

                                                      Moles in assemblage
Phase               SI  log IAP  log K(T, P)   Initial       Final       Delta

CO2(g)           -3.50   -21.65    -18.15    1.000e+01   1.000e+01  -3.108e-05
fix_pH           -6.50    -6.50      0.00
	 NaOH               is reactant       1.000e+01   1.000e+01   4.920e-05

------------------------------Surface composition------------------------------

Bacta         
	 -4.034e-04  Surface charge, eq
Bacta         
	  4.400e-04  moles
	                                   Mole                     Log
	Species               Moles    Fraction    Molality    Molality

	BactaO-           4.216e-04       0.958   4.216e-04      -3.375
	BactaOZn+         1.816e-05       0.041   1.816e-05      -4.741
	BactaOH           2.660e-07       0.001   2.660e-07      -6.575

Bactb         
	 -5.417e-04  Surface charge, eq
Bactb         
	  5.600e-04  moles
	                                   Mole                     Log
	Species               Moles    Fraction    Molality    Molality

	BactbO-           5.454e-04       0.974   5.454e-04      -3.263
	BactbOH           1.088e-05       0.019   1.088e-05      -4.963
	BactbOZn+         3.723e-06       0.007   3.723e-06      -5.429

Bactc         
	 -3.656e-05  Surface charge, eq
Bactc         
	  2.200e-04  moles
	                                   Mole                     Log
	Species               Moles    Fraction    Molality    Molality

	BactcOH           1.281e-04       0.582   1.281e-04      -3.892
	BactcO-           6.422e-05       0.292   6.422e-05      -4.192
	BactcOZn+         2.766e-05       0.126   2.766e-05      -4.558

Bactd         
	 -9.271e-07  Surface charge, eq
Bactd         
	  3.700e-04  moles
	                                   Mole                     Log
	Species               Moles    Fraction    Molality    Molality

	BactdOH           3.691e-04       0.997   3.691e-04      -3.433
	BactdO-           9.271e-07       0.003   9.271e-07      -6.033

-----------------------------Solution composition------------------------------

	Elements           Molality       Moles

	C                 3.108e-05   3.108e-05
	Cl                1.200e-01   1.200e-01
	Na                1.200e-01   1.200e-01
	Zn                8.666e-05   8.666e-05

----------------------------Description of solution----------------------------

                                       pH  =   6.500      Charge balance
                                       pe  =  -0.987      Adjusted to redox equilibrium
                        Activity of water  =   0.996
                 Ionic strength (mol/kgw)  =   1.201e-01
                       Mass of water (kg)  =   1.000e+00
                 Total alkalinity (eq/kg)  =   2.035e-05
                       Total CO2 (mol/kg)  =   3.108e-05
                         Temperature (°C)  =  25.00
                  Electrical balance (eq)  =   1.038e-04
 Percent error, 100*(Cat-|An|)/(Cat+|An|)  =   0.04
                               Iterations  =  13
                                  Total H  = 1.110135e+02
                                  Total O  = 5.550685e+01

----------------------------Distribution of species----------------------------

                                               Log       Log       Log    mole V
   Species          Molality    Activity  Molality  Activity     Gamma   cm³/mol

   H+              4.101e-07   3.162e-07    -6.387    -6.500    -0.113      0.00
   OH-             4.243e-08   3.171e-08    -7.372    -7.499    -0.126     (0)  
   H2O             5.551e+01   9.959e-01     1.744    -0.002     0.000     18.07
C(4)          3.108e-05
   HCO3-           1.948e-05   1.514e-05    -4.710    -4.820    -0.109     (0)  
   H2CO3           1.077e-05   1.077e-05    -4.968    -4.968     0.000     (0)  
   NaHCO3          7.876e-07   7.876e-07    -6.104    -6.104     0.000     (0)  
   ZnHCO3+         1.955e-08   1.301e-08    -7.709    -7.886    -0.177     (0)  
   CO3-2           6.350e-09   2.245e-09    -8.197    -8.649    -0.452     (0)  
   NaCO3-          4.975e-09   3.867e-09    -8.303    -8.413    -0.109     (0)  
   ZnCO3           3.511e-09   3.511e-09    -8.455    -8.455     0.000     (0)  
Cl            1.200e-01
   Cl-             1.200e-01   9.252e-02    -0.921    -1.034    -0.113     (0)  
   ZnCl+           8.353e-06   6.315e-06    -5.078    -5.200    -0.121     (0)  
   ZnCl2           9.261e-07   9.261e-07    -6.033    -6.033     0.000     (0)  
   ZnOHCl          2.622e-07   2.622e-07    -6.581    -6.581     0.000     (0)  
   ZnCl3-          9.002e-08   6.806e-08    -7.046    -7.167    -0.121     (0)  
   ZnCl4-2         8.887e-09   3.149e-09    -8.051    -8.502    -0.451     (0)  
H(0)          1.295e-14
   H2              6.476e-15   6.658e-15   -14.189   -14.177     0.012     (0)  
Na            1.200e-01
   Na+             1.200e-01   9.249e-02    -0.921    -1.034    -0.113     (0)  
   NaHCO3          7.876e-07   7.876e-07    -6.104    -6.104     0.000     (0)  
   NaCO3-          4.975e-09   3.867e-09    -8.303    -8.413    -0.109     (0)  
O(0)          0.000e+00
   O2              0.000e+00   0.000e+00   -63.957   -63.945     0.012     (0)  
Zn            8.666e-05
   Zn+2            7.687e-05   2.717e-05    -4.114    -4.566    -0.452     (0)  
   ZnCl+           8.353e-06   6.315e-06    -5.078    -5.200    -0.121     (0)  
   ZnCl2           9.261e-07   9.261e-07    -6.033    -6.033     0.000     (0)  
   ZnOHCl          2.622e-07   2.622e-07    -6.581    -6.581     0.000     (0)  
   ZnOH+           1.295e-07   8.617e-08    -6.888    -7.065    -0.177     (0)  
   ZnCl3-          9.002e-08   6.806e-08    -7.046    -7.167    -0.121     (0)  
   ZnHCO3+         1.955e-08   1.301e-08    -7.709    -7.886    -0.177     (0)  
   ZnCl4-2         8.887e-09   3.149e-09    -8.051    -8.502    -0.451     (0)  
   ZnCO3           3.511e-09   3.511e-09    -8.455    -8.455     0.000     (0)  
   Zn(OH)2         4.331e-10   4.331e-10    -9.363    -9.363     0.000     (0)  
   Zn(OH)3-        1.034e-13   6.884e-14   -12.985   -13.162    -0.177     (0)  
   Zn(OH)4-2       4.428e-19   8.691e-20   -18.354   -19.061    -0.707     (0)  

------------------------------Saturation indices-------------------------------

  Phase               SI** log IAP   log K(298 K,   1 atm)

  CH4(g)          -24.70    -65.75  -41.05  CH4
  CO2(g)           -3.50    -21.65  -18.15  CO2
  fix_pH           -6.50     -6.50    0.00  H+
  Halite           -3.67     -2.07    1.60  NaCl
  Natron           -9.42    -10.73   -1.31  Na2CO3:10H2O
  O2(g)           -61.04     22.05   83.09  O2
  Smithsonite      -3.21    -13.21  -10.00  ZnCO3
  Thermonatrite   -11.36    -10.72    0.64  Na2CO3:H2O
  Zincite          -2.90      8.43   11.33  ZnO
  Zn(OH)2          -3.77      8.43   12.20  Zn(OH)2
  Zn(OH)2(am)      -4.04      8.43   12.47  Zn(OH)2
  Zn(OH)2(beta)    -3.32      8.43   11.75  Zn(OH)2
  Zn(OH)2(epsilon)  -3.10      8.43   11.53  Zn(OH)2
  Zn(OH)2(gamma)   -3.30      8.43   11.73  Zn(OH)2
  Zn2(OH)3Cl       -5.86      9.33   15.19  Zn2(OH)3Cl
  Zn5(OH)8Cl2     -11.41     27.09   38.50  Zn5(OH)8Cl2
  ZnCl2           -13.68     -6.63    7.05  ZnCl2
  ZnCO3:1H2O       -2.96    -13.22  -10.26  ZnCO3:1H2O
  Znmetal         -28.38     -2.59   25.79  Zn
  ZnO(active)      -2.76      8.43   11.19  ZnO

**For a gas, SI = log10(fugacity). Fugacity = pressure * phi / 1 atm.
  For ideal gases, phi = 1.

------------------
End of simulation.
------------------

------------------------------------
Reading input data for simulation 7.
------------------------------------

	USE SOLUTION 1
	USE SURFACE 1
	EQUILIBRIUM_PHASES 1
	CO2(g) -3.5 10
	fix_pH -7.0 NaOH 10
	END
-----------------------------------------
Beginning of batch-reaction calculations.
-----------------------------------------

Reaction step 1.

Using solution 1.	
Using surface 1.	
Using pure phase assemblage 1.	

-------------------------------Phase assemblage--------------------------------

                                                      Moles in assemblage
Phase               SI  log IAP  log K(T, P)   Initial       Final       Delta

CO2(g)           -3.50   -21.65    -18.15    1.000e+01   1.000e+01  -7.508e-05
fix_pH           -7.00    -7.00      0.00
	 NaOH               is reactant       1.000e+01   1.000e+01  -6.444e-05

------------------------------Surface composition------------------------------

Bacta         
	 -4.082e-04  Surface charge, eq
Bacta         
	  4.400e-04  moles
	                                   Mole                     Log
	Species               Moles    Fraction    Molality    Molality

	BactaO-           4.241e-04       0.964   4.241e-04      -3.373
	BactaOZn+         1.585e-05       0.036   1.585e-05      -4.800
	BactaOH           8.461e-08       0.000   8.461e-08      -7.073

Bactb         
	 -5.500e-04  Surface charge, eq
Bactb         
	  5.600e-04  moles
	                                   Mole                     Log
	Species               Moles    Fraction    Molality    Molality

	BactbO-           5.532e-04       0.988   5.532e-04      -3.257
	BactbOH           3.491e-06       0.006   3.491e-06      -5.457
	BactbOZn+         3.278e-06       0.006   3.278e-06      -5.484

Bactc         
	 -6.871e-05  Surface charge, eq
Bactc         
	  2.200e-04  moles
	                                   Mole                     Log
	Species               Moles    Fraction    Molality    Molality

	BactcO-           1.097e-04       0.499   1.097e-04      -3.960
	BactcOH           6.924e-05       0.315   6.924e-05      -4.160
	BactcOZn+         4.103e-05       0.186   4.103e-05      -4.387

Bactd         
	 -2.916e-06  Surface charge, eq
Bactd         
	  3.700e-04  moles
	                                   Mole                     Log
	Species               Moles    Fraction    Molality    Molality

	BactdOH           3.671e-04       0.992   3.671e-04      -3.435
	BactdO-           2.916e-06       0.008   2.916e-06      -5.535

-----------------------------Solution composition------------------------------

	Elements           Molality       Moles

	C                 7.508e-05   7.508e-05
	Cl                1.200e-01   1.200e-01
	Na                1.201e-01   1.201e-01
	Zn                7.604e-05   7.604e-05

----------------------------Description of solution----------------------------

                                       pH  =   7.000      Charge balance
                                       pe  =  -1.487      Adjusted to redox equilibrium
                        Activity of water  =   0.996
                 Ionic strength (mol/kgw)  =   1.202e-01
                       Mass of water (kg)  =   1.000e+00
                 Total alkalinity (eq/kg)  =   6.554e-05
                       Total CO2 (mol/kg)  =   7.508e-05
                         Temperature (°C)  =  25.00
                  Electrical balance (eq)  =   1.510e-04
 Percent error, 100*(Cat-|An|)/(Cat+|An|)  =   0.06
                               Iterations  =  13
                                  Total H  = 1.110137e+02
                                  Total O  = 5.550705e+01

----------------------------Distribution of species----------------------------

                                               Log       Log       Log    mole V
   Species          Molality    Activity  Molality  Activity     Gamma   cm³/mol

   OH-             1.342e-07   1.003e-07    -6.872    -6.999    -0.126     (0)  
   H+              1.297e-07   1.000e-07    -6.887    -7.000    -0.113      0.00
   H2O             5.551e+01   9.959e-01     1.744    -0.002     0.000     18.07
C(4)          7.508e-05
   HCO3-           6.162e-05   4.789e-05    -4.210    -4.320    -0.109     (0)  
   H2CO3           1.077e-05   1.077e-05    -4.968    -4.968     0.000     (0)  
   NaHCO3          2.493e-06   2.493e-06    -5.603    -5.603     0.000     (0)  
   CO3-2           6.351e-08   2.245e-08    -7.197    -7.649    -0.452     (0)  
   ZnHCO3+         5.367e-08   3.572e-08    -7.270    -7.447    -0.177     (0)  
   NaCO3-          4.980e-08   3.870e-08    -7.303    -7.412    -0.109     (0)  
   ZnCO3           3.047e-08   3.047e-08    -7.516    -7.516     0.000     (0)  
Cl            1.200e-01
   Cl-             1.200e-01   9.252e-02    -0.921    -1.034    -0.113     (0)  
   ZnCl+           7.251e-06   5.482e-06    -5.140    -5.261    -0.121     (0)  
   ZnCl2           8.039e-07   8.039e-07    -6.095    -6.095     0.000     (0)  
   ZnOHCl          7.197e-07   7.197e-07    -6.143    -6.143     0.000     (0)  
   ZnCl3-          7.814e-08   5.908e-08    -7.107    -7.229    -0.121     (0)  
   ZnCl4-2         7.715e-09   2.733e-09    -8.113    -8.563    -0.451     (0)  
H(0)          1.296e-14
   H2              6.482e-15   6.664e-15   -14.188   -14.176     0.012     (0)  
Na            1.201e-01
   Na+             1.201e-01   9.258e-02    -0.921    -1.034    -0.113     (0)  
   NaHCO3          2.493e-06   2.493e-06    -5.603    -5.603     0.000     (0)  
   NaCO3-          4.980e-08   3.870e-08    -7.303    -7.412    -0.109     (0)  
O(0)          0.000e+00
   O2              0.000e+00   0.000e+00   -63.958   -63.946     0.012     (0)  
Zn            7.604e-05
   Zn+2            6.673e-05   2.359e-05    -4.176    -4.627    -0.452     (0)  
   ZnCl+           7.251e-06   5.482e-06    -5.140    -5.261    -0.121     (0)  
   ZnCl2           8.039e-07   8.039e-07    -6.095    -6.095     0.000     (0)  
   ZnOHCl          7.197e-07   7.197e-07    -6.143    -6.143     0.000     (0)  
   ZnOH+           3.554e-07   2.366e-07    -6.449    -6.626    -0.177     (0)  
   ZnCl3-          7.814e-08   5.908e-08    -7.107    -7.229    -0.121     (0)  
   ZnHCO3+         5.367e-08   3.572e-08    -7.270    -7.447    -0.177     (0)  
   ZnCO3           3.047e-08   3.047e-08    -7.516    -7.516     0.000     (0)  
   ZnCl4-2         7.715e-09   2.733e-09    -8.113    -8.563    -0.451     (0)  
   Zn(OH)2         3.760e-09   3.760e-09    -8.425    -8.425     0.000     (0)  
   Zn(OH)3-        2.839e-12   1.890e-12   -11.547   -11.724    -0.177     (0)  
   Zn(OH)4-2       3.845e-17   7.544e-18   -16.415   -17.122    -0.707     (0)  

------------------------------Saturation indices-------------------------------

  Phase               SI** log IAP   log K(298 K,   1 atm)

  CH4(g)          -24.70    -65.75  -41.05  CH4
  CO2(g)           -3.50    -21.65  -18.15  CO2
  fix_pH           -7.00     -7.00    0.00  H+
  Halite           -3.67     -2.07    1.60  NaCl
  Natron           -8.42     -9.73   -1.31  Na2CO3:10H2O
  O2(g)           -61.04     22.05   83.09  O2
  Smithsonite      -2.28    -12.28  -10.00  ZnCO3
  Thermonatrite   -10.35     -9.72    0.64  Na2CO3:H2O
  Zincite          -1.96      9.37   11.33  ZnO
  Zn(OH)2          -2.83      9.37   12.20  Zn(OH)2
  Zn(OH)2(am)      -3.10      9.37   12.47  Zn(OH)2
  Zn(OH)2(beta)    -2.38      9.37   11.75  Zn(OH)2
  Zn(OH)2(epsilon)  -2.16      9.37   11.53  Zn(OH)2
  Zn(OH)2(gamma)   -2.36      9.37   11.73  Zn(OH)2
  Zn2(OH)3Cl       -4.48     10.71   15.19  Zn2(OH)3Cl
  Zn5(OH)8Cl2      -7.72     30.78   38.50  Zn5(OH)8Cl2
  ZnCl2           -13.74     -6.69    7.05  ZnCl2
  ZnCO3:1H2O       -2.02    -12.28  -10.26  ZnCO3:1H2O
  Znmetal         -27.44     -1.65   25.79  Zn
  ZnO(active)      -1.82      9.37   11.19  ZnO

**For a gas, SI = log10(fugacity). Fugacity = pressure * phi / 1 atm.
  For ideal gases, phi = 1.

------------------
End of simulation.
------------------

------------------------------------
Reading input data for simulation 8.
------------------------------------

	USE SOLUTION 1
	USE SURFACE 1
	EQUILIBRIUM_PHASES 1
	CO2(g) -3.5 10
	fix_pH -7.5 NaOH 10
	END
-----------------------------------------
Beginning of batch-reaction calculations.
-----------------------------------------

Reaction step 1.

Using solution 1.	
Using surface 1.	
Using pure phase assemblage 1.	

-------------------------------Phase assemblage--------------------------------

                                                      Moles in assemblage
Phase               SI  log IAP  log K(T, P)   Initial       Final       Delta

CO2(g)           -3.50   -21.65    -18.15    1.000e+01   1.000e+01  -2.151e-04
fix_pH           -7.50    -7.50      0.00
	 NaOH               is reactant       1.000e+01   1.000e+01  -2.574e-04

------------------------------Surface composition------------------------------

Bacta         
	 -4.114e-04  Surface charge, eq
Bacta         
	  4.400e-04  moles
	                                   Mole                     Log
	Species               Moles    Fraction    Molality    Molality

	BactaO-           4.257e-04       0.967   4.257e-04      -3.371
	BactaOZn+         1.430e-05       0.032   1.430e-05      -4.845
	BactaOH           2.686e-08       0.000   2.686e-08      -7.571

Bactb         
	 -5.530e-04  Surface charge, eq
Bactb         
	  5.600e-04  moles
	                                   Mole                     Log
	Species               Moles    Fraction    Molality    Molality

	BactbO-           5.559e-04       0.993   5.559e-04      -3.255
	BactbOZn+         2.960e-06       0.005   2.960e-06      -5.529
	BactbOH           1.109e-06       0.002   1.109e-06      -5.955

Bactc         
	 -9.515e-05  Surface charge, eq
Bactc         
	  2.200e-04  moles
	                                   Mole                     Log
	Species               Moles    Fraction    Molality    Molality

	BactcO-           1.433e-04       0.651   1.433e-04      -3.844
	BactcOZn+         4.813e-05       0.219   4.813e-05      -4.318
	BactcOH           2.859e-05       0.130   2.859e-05      -4.544

Bactd         
	 -9.066e-06  Surface charge, eq
Bactd         
	  3.700e-04  moles
	                                   Mole                     Log
	Species               Moles    Fraction    Molality    Molality

	BactdOH           3.609e-04       0.975   3.609e-04      -3.443
	BactdO-           9.066e-06       0.025   9.066e-06      -5.043

-----------------------------Solution composition------------------------------

	Elements           Molality       Moles

	C                 2.151e-04   2.151e-04
	Cl                1.200e-01   1.200e-01
	Na                1.203e-01   1.203e-01
	Zn                7.081e-05   7.081e-05

----------------------------Description of solution----------------------------

                                       pH  =   7.500      Charge balance
                                       pe  =  -1.987      Adjusted to redox equilibrium
                        Activity of water  =   0.996
                 Ionic strength (mol/kgw)  =   1.203e-01
                       Mass of water (kg)  =   1.000e+00
                 Total alkalinity (eq/kg)  =   2.092e-04
                       Total CO2 (mol/kg)  =   2.151e-04
                         Temperature (°C)  =  25.00
                  Electrical balance (eq)  =   1.898e-04
 Percent error, 100*(Cat-|An|)/(Cat+|An|)  =   0.08
                               Iterations  =  13
                                  Total H  = 1.110140e+02
                                  Total O  = 5.550752e+01

----------------------------Distribution of species----------------------------

                                               Log       Log       Log    mole V
   Species          Molality    Activity  Molality  Activity     Gamma   cm³/mol

   OH-             4.243e-07   3.171e-07    -6.372    -6.499    -0.126     (0)  
   H+              4.102e-08   3.162e-08    -7.387    -7.500    -0.113      0.00
   H2O             5.551e+01   9.959e-01     1.744    -0.002     0.000     18.07
C(4)          2.151e-04
   HCO3-           1.949e-04   1.514e-04    -3.710    -3.820    -0.110     (0)  
   H2CO3           1.077e-05   1.077e-05    -4.968    -4.968     0.000     (0)  
   NaHCO3          7.895e-06   7.895e-06    -5.103    -5.103     0.000     (0)  
   CO3-2           6.353e-07   2.245e-07    -6.197    -6.649    -0.452     (0)  
   NaCO3-          4.988e-07   3.876e-07    -6.302    -6.412    -0.110     (0)  
   ZnCO3           2.738e-07   2.738e-07    -6.563    -6.563     0.000     (0)  
   ZnHCO3+         1.525e-07   1.015e-07    -6.817    -6.994    -0.177     (0)  
Cl            1.200e-01
   Cl-             1.200e-01   9.251e-02    -0.921    -1.034    -0.113     (0)  
   ZnCl+           6.515e-06   4.925e-06    -5.186    -5.308    -0.122     (0)  
   ZnOHCl          2.045e-06   2.045e-06    -5.689    -5.689     0.000     (0)  
   ZnCl2           7.221e-07   7.221e-07    -6.141    -6.141     0.000     (0)  
   ZnCl3-          7.020e-08   5.306e-08    -7.154    -7.275    -0.122     (0)  
   ZnCl4-2         6.932e-09   2.455e-09    -8.159    -8.610    -0.451     (0)  
H(0)          1.296e-14
   H2              6.478e-15   6.660e-15   -14.189   -14.177     0.012     (0)  
Na            1.203e-01
   Na+             1.202e-01   9.271e-02    -0.920    -1.033    -0.113     (0)  
   NaHCO3          7.895e-06   7.895e-06    -5.103    -5.103     0.000     (0)  
   NaCO3-          4.988e-07   3.876e-07    -6.302    -6.412    -0.110     (0)  
O(0)          0.000e+00
   O2              0.000e+00   0.000e+00   -63.958   -63.946     0.012     (0)  
Zn            7.081e-05
   Zn+2            5.998e-05   2.119e-05    -4.222    -4.674    -0.452     (0)  
   ZnCl+           6.515e-06   4.925e-06    -5.186    -5.308    -0.122     (0)  
   ZnOHCl          2.045e-06   2.045e-06    -5.689    -5.689     0.000     (0)  
   ZnOH+           1.010e-06   6.721e-07    -5.996    -6.173    -0.177     (0)  
   ZnCl2           7.221e-07   7.221e-07    -6.141    -6.141     0.000     (0)  
   ZnCO3           2.738e-07   2.738e-07    -6.563    -6.563     0.000     (0)  
   ZnHCO3+         1.525e-07   1.015e-07    -6.817    -6.994    -0.177     (0)  
   ZnCl3-          7.020e-08   5.306e-08    -7.154    -7.275    -0.122     (0)  
   Zn(OH)2         3.378e-08   3.378e-08    -7.471    -7.471     0.000     (0)  
   ZnCl4-2         6.932e-09   2.455e-09    -8.159    -8.610    -0.451     (0)  
   Zn(OH)3-        8.069e-11   5.369e-11   -10.093   -10.270    -0.177     (0)  
   Zn(OH)4-2       3.458e-15   6.778e-16   -14.461   -15.169    -0.708     (0)  

------------------------------Saturation indices-------------------------------

  Phase               SI** log IAP   log K(298 K,   1 atm)

  CH4(g)          -24.70    -65.75  -41.05  CH4
  CO2(g)           -3.50    -21.65  -18.15  CO2
  fix_pH           -7.50     -7.50    0.00  H+
  Halite           -3.67     -2.07    1.60  NaCl
  Natron           -7.42     -8.73   -1.31  Na2CO3:10H2O
  O2(g)           -61.04     22.05   83.09  O2
  Smithsonite      -1.32    -11.32  -10.00  ZnCO3
  Thermonatrite    -9.35     -8.72    0.64  Na2CO3:H2O
  Zincite          -1.01     10.32   11.33  ZnO
  Zn(OH)2          -1.88     10.32   12.20  Zn(OH)2
  Zn(OH)2(am)      -2.15     10.32   12.47  Zn(OH)2
  Zn(OH)2(beta)    -1.43     10.32   11.75  Zn(OH)2
  Zn(OH)2(epsilon)  -1.21     10.32   11.53  Zn(OH)2
  Zn(OH)2(gamma)   -1.41     10.32   11.73  Zn(OH)2
  Zn2(OH)3Cl       -3.08     12.11   15.19  Zn2(OH)3Cl
  Zn5(OH)8Cl2      -3.95     34.55   38.50  Zn5(OH)8Cl2
  ZnCl2           -13.79     -6.74    7.05  ZnCl2
  ZnCO3:1H2O       -1.06    -11.32  -10.26  ZnCO3:1H2O
  Znmetal         -26.49     -0.70   25.79  Zn
  ZnO(active)      -0.86     10.32   11.19  ZnO

**For a gas, SI = log10(fugacity). Fugacity = pressure * phi / 1 atm.
  For ideal gases, phi = 1.

------------------
End of simulation.
------------------

------------------------------------
Reading input data for simulation 9.
------------------------------------

	USE SOLUTION 1
	USE SURFACE 1
	EQUILIBRIUM_PHASES 1
	CO2(g) -3.5 10
	fix_pH -8.0 NaOH 10
	END
-----------------------------------------
Beginning of batch-reaction calculations.
-----------------------------------------

Reaction step 1.

Using solution 1.	
Using surface 1.	
Using pure phase assemblage 1.	

-------------------------------Phase assemblage--------------------------------

                                                      Moles in assemblage
Phase               SI  log IAP  log K(T, P)   Initial       Final       Delta

CO2(g)           -3.50   -21.65    -18.15    1.000e+01   9.999e+00  -6.665e-04
fix_pH           -8.00    -8.00      0.00
	 NaOH               is reactant       1.000e+01   9.999e+00  -7.656e-04

------------------------------Surface composition------------------------------

Bacta         
	 -4.143e-04  Surface charge, eq
Bacta         
	  4.400e-04  moles
	                                   Mole                     Log
	Species               Moles    Fraction    Molality    Molality

	BactaO-           4.271e-04       0.971   4.271e-04      -3.369
	BactaOZn+         1.285e-05       0.029   1.285e-05      -4.891
	BactaOH           8.523e-09       0.000   8.523e-09      -8.069

Bactb         
	 -5.543e-04  Surface charge, eq
Bactb         
	  5.600e-04  moles
	                                   Mole                     Log
	Species               Moles    Fraction    Molality    Molality

	BactbO-           5.570e-04       0.995   5.570e-04      -3.254
	BactbOZn+         2.656e-06       0.005   2.656e-06      -5.576
	BactbOH           3.514e-07       0.001   3.514e-07      -6.454

Bactc         
	 -1.128e-04  Surface charge, eq
Bactc         
	  2.200e-04  moles
	                                   Mole                     Log
	Species               Moles    Fraction    Molality    Molality

	BactcO-           1.613e-04       0.733   1.613e-04      -3.792
	BactcOZn+         4.852e-05       0.221   4.852e-05      -4.314
	BactcOH           1.018e-05       0.046   1.018e-05      -4.992

Bactd         
	 -2.723e-05  Surface charge, eq
Bactd         
	  3.700e-04  moles
	                                   Mole                     Log
	Species               Moles    Fraction    Molality    Molality

	BactdOH           3.428e-04       0.926   3.428e-04      -3.465
	BactdO-           2.723e-05       0.074   2.723e-05      -4.565

-----------------------------Solution composition------------------------------

	Elements           Molality       Moles

	C                 6.665e-04   6.665e-04
	Cl                1.200e-01   1.200e-01
	Na                1.208e-01   1.208e-01
	Zn                7.217e-05   7.217e-05

----------------------------Description of solution----------------------------

                                       pH  =   8.000      Charge balance
                                       pe  =  -2.487      Adjusted to redox equilibrium
                        Activity of water  =   0.996
                 Ionic strength (mol/kgw)  =   1.208e-01
                       Mass of water (kg)  =   1.000e+00
                 Total alkalinity (eq/kg)  =   6.801e-04
                       Total CO2 (mol/kg)  =   6.665e-04
                         Temperature (°C)  =  25.00
                  Electrical balance (eq)  =   2.298e-04
 Percent error, 100*(Cat-|An|)/(Cat+|An|)  =   0.10
                               Iterations  =  14
                                  Total H  = 1.110145e+02
                                  Total O  = 5.550893e+01

----------------------------Distribution of species----------------------------

                                               Log       Log       Log    mole V
   Species          Molality    Activity  Molality  Activity     Gamma   cm³/mol

   OH-             1.342e-06   1.003e-06    -5.872    -5.999    -0.127     (0)  
   H+              1.297e-08   1.000e-08    -7.887    -8.000    -0.113      0.00
   H2O             5.551e+01   9.959e-01     1.744    -0.002     0.000     18.07
C(4)          6.665e-04
   HCO3-           6.164e-04   4.789e-04    -3.210    -3.320    -0.110     (0)  
   NaHCO3          2.506e-05   2.506e-05    -4.601    -4.601     0.000     (0)  
   H2CO3           1.077e-05   1.077e-05    -4.968    -4.968     0.000     (0)  
   CO3-2           6.360e-06   2.245e-06    -5.197    -5.649    -0.452     (0)  
   NaCO3-          5.008e-06   3.890e-06    -5.300    -5.410    -0.110     (0)  
   ZnCO3           2.452e-06   2.452e-06    -5.610    -5.610     0.000     (0)  
   ZnHCO3+         4.323e-07   2.874e-07    -6.364    -6.541    -0.177     (0)  
Cl            1.200e-01
   Cl-             1.200e-01   9.249e-02    -0.921    -1.034    -0.113     (0)  
   ZnCl+           5.836e-06   4.410e-06    -5.234    -5.356    -0.122     (0)  
   ZnOHCl          5.789e-06   5.789e-06    -5.237    -5.237     0.000     (0)  
   ZnCl2           6.464e-07   6.464e-07    -6.190    -6.190     0.000     (0)  
   ZnCl3-          6.284e-08   4.748e-08    -7.202    -7.323    -0.122     (0)  
   ZnCl4-2         6.209e-09   2.196e-09    -8.207    -8.658    -0.451     (0)  
H(0)          1.298e-14
   H2              6.490e-15   6.673e-15   -14.188   -14.176     0.012     (0)  
Na            1.208e-01
   Na+             1.207e-01   9.306e-02    -0.918    -1.031    -0.113     (0)  
   NaHCO3          2.506e-05   2.506e-05    -4.601    -4.601     0.000     (0)  
   NaCO3-          5.008e-06   3.890e-06    -5.300    -5.410    -0.110     (0)  
O(0)          0.000e+00
   O2              0.000e+00   0.000e+00   -63.959   -63.947     0.012     (0)  
Zn            7.217e-05
   Zn+2            5.377e-05   1.898e-05    -4.269    -4.722    -0.452     (0)  
   ZnCl+           5.836e-06   4.410e-06    -5.234    -5.356    -0.122     (0)  
   ZnOHCl          5.789e-06   5.789e-06    -5.237    -5.237     0.000     (0)  
   ZnOH+           2.863e-06   1.903e-06    -5.543    -5.720    -0.177     (0)  
   ZnCO3           2.452e-06   2.452e-06    -5.610    -5.610     0.000     (0)  
   ZnCl2           6.464e-07   6.464e-07    -6.190    -6.190     0.000     (0)  
   ZnHCO3+         4.323e-07   2.874e-07    -6.364    -6.541    -0.177     (0)  
   Zn(OH)2         3.025e-07   3.025e-07    -6.519    -6.519     0.000     (0)  
   ZnCl3-          6.284e-08   4.748e-08    -7.202    -7.323    -0.122     (0)  
   ZnCl4-2         6.209e-09   2.196e-09    -8.207    -8.658    -0.451     (0)  
   Zn(OH)3-        2.287e-09   1.520e-09    -8.641    -8.818    -0.177     (0)  
   Zn(OH)4-2       3.106e-13   6.070e-14   -12.508   -13.217    -0.709     (0)  

------------------------------Saturation indices-------------------------------

  Phase               SI** log IAP   log K(298 K,   1 atm)

  CH4(g)          -24.70    -65.75  -41.05  CH4
  CO2(g)           -3.50    -21.65  -18.15  CO2
  fix_pH           -8.00     -8.00    0.00  H+
  Halite           -3.67     -2.07    1.60  NaCl
  Natron           -6.42     -7.73   -1.31  Na2CO3:10H2O
  O2(g)           -61.04     22.05   83.09  O2
  Smithsonite      -0.37    -10.37  -10.00  ZnCO3
  Thermonatrite    -8.35     -7.71    0.64  Na2CO3:H2O
  Zincite          -0.06     11.28   11.33  ZnO
  Zn(OH)2          -0.93     11.27   12.20  Zn(OH)2
  Zn(OH)2(am)      -1.20     11.27   12.47  Zn(OH)2
  Zn(OH)2(beta)    -0.48     11.27   11.75  Zn(OH)2
  Zn(OH)2(epsilon)  -0.26     11.27   11.53  Zn(OH)2
  Zn(OH)2(gamma)   -0.46     11.27   11.73  Zn(OH)2
  Zn2(OH)3Cl       -1.67     13.52   15.19  Zn2(OH)3Cl
  Zn5(OH)8Cl2      -0.19     38.31   38.50  Zn5(OH)8Cl2
  ZnCl2           -13.84     -6.79    7.05  ZnCl2
  ZnCO3:1H2O       -0.11    -10.37  -10.26  ZnCO3:1H2O
  Znmetal         -25.54      0.25   25.79  Zn
  ZnO(active)       0.09     11.28   11.19  ZnO

**For a gas, SI = log10(fugacity). Fugacity = pressure * phi / 1 atm.
  For ideal gases, phi = 1.

------------------
End of simulation.
------------------

-------------------------------------
Reading input data for simulation 10.
-------------------------------------

	USE SOLUTION 1
	USE SURFACE 1
	EQUILIBRIUM_PHASES 1
	CO2(g) -3.5 10
	fix_pH -8.5 NaOH 10
	END
-----------------------------------------
Beginning of batch-reaction calculations.
-----------------------------------------

Reaction step 1.

Using solution 1.	
Using surface 1.	
Using pure phase assemblage 1.	

-------------------------------Phase assemblage--------------------------------

                                                      Moles in assemblage
Phase               SI  log IAP  log K(T, P)   Initial       Final       Delta

CO2(g)           -3.50   -21.65    -18.15    1.000e+01   9.998e+00  -2.176e-03
fix_pH           -8.50    -8.50      0.00
	 NaOH               is reactant       1.000e+01   9.998e+00  -2.466e-03

------------------------------Surface composition------------------------------

Bacta         
	 -4.210e-04  Surface charge, eq
Bacta         
	  4.400e-04  moles
	                                   Mole                     Log
	Species               Moles    Fraction    Molality    Molality

	BactaO-           4.305e-04       0.978   4.305e-04      -3.366
	BactaOZn+         9.491e-06       0.022   9.491e-06      -5.023
	BactaOH           2.716e-09       0.000   2.716e-09      -8.566

Bactb         
	 -5.560e-04  Surface charge, eq
Bactb         
	  5.600e-04  moles
	                                   Mole                     Log
	Species               Moles    Fraction    Molality    Molality

	BactbO-           5.579e-04       0.996   5.579e-04      -3.253
	BactbOZn+         1.950e-06       0.003   1.950e-06      -5.710
	BactbOH           1.113e-07       0.000   1.113e-07      -6.953

Bactc         
	 -1.383e-04  Surface charge, eq
Bactc         
	  2.200e-04  moles
	                                   Mole                     Log
	Species               Moles    Fraction    Molality    Molality

	BactcO-           1.774e-04       0.806   1.774e-04      -3.751
	BactcOZn+         3.910e-05       0.178   3.910e-05      -4.408
	BactcOH           3.539e-06       0.016   3.539e-06      -5.451

Bactd         
	 -7.428e-05  Surface charge, eq
Bactd         
	  3.700e-04  moles
[...]
   NaCO3-          5.329e-04   4.119e-04    -3.273    -3.385    -0.112     (0)  
   NaHCO3          2.653e-04   2.653e-04    -3.576    -3.576     0.000     (0)  
   ZnCO3           6.589e-05   6.589e-05    -4.181    -4.181     0.000     (0)  
   H2CO3           1.077e-05   1.077e-05    -4.968    -4.968     0.000     (0)  
   ZnHCO3+         1.178e-06   7.724e-07    -5.929    -6.112    -0.183     (0)  
Cl            1.200e-01
   Cl-             1.200e-01   9.206e-02    -0.921    -1.036    -0.115     (0)  
   ZnOHCl          1.549e-05   1.549e-05    -4.810    -4.810     0.000     (0)  
   ZnCl+           1.571e-06   1.180e-06    -5.804    -5.928    -0.124     (0)  
   ZnCl2           1.722e-07   1.722e-07    -6.764    -6.764     0.000     (0)  
   ZnCl3-          1.677e-08   1.259e-08    -7.776    -7.900    -0.124     (0)  
   ZnCl4-2         1.674e-09   5.796e-10    -8.776    -9.237    -0.461     (0)  
H(0)          1.296e-14
   H2              6.482e-15   6.678e-15   -14.188   -14.175     0.013     (0)  
Na            1.292e-01
   Na+             1.284e-01   9.855e-02    -0.891    -1.006    -0.115     (0)  
   NaCO3-          5.329e-04   4.119e-04    -3.273    -3.385    -0.112     (0)  
   NaHCO3          2.653e-04   2.653e-04    -3.576    -3.576     0.000     (0)  
O(0)          0.000e+00
   O2              0.000e+00   0.000e+00   -63.961   -63.948     0.013     (0)  
Zn            1.156e-04
   ZnCO3           6.589e-05   6.589e-05    -4.181    -4.181     0.000     (0)  
   ZnOHCl          1.549e-05   1.549e-05    -4.810    -4.810     0.000     (0)  
   Zn+2            1.472e-05   5.102e-06    -4.832    -5.292    -0.460     (0)  
   Zn(OH)2         8.127e-06   8.127e-06    -5.090    -5.090     0.000     (0)  
   ZnOH+           7.798e-06   5.115e-06    -5.108    -5.291    -0.183     (0)  
   ZnCl+           1.571e-06   1.180e-06    -5.804    -5.928    -0.124     (0)  
   ZnHCO3+         1.178e-06   7.724e-07    -5.929    -6.112    -0.183     (0)  
   Zn(OH)3-        6.225e-07   4.084e-07    -6.206    -6.389    -0.183     (0)  
   ZnCl2           1.722e-07   1.722e-07    -6.764    -6.764     0.000     (0)  
   ZnCl3-          1.677e-08   1.259e-08    -7.776    -7.900    -0.124     (0)  
   ZnCl4-2         1.674e-09   5.796e-10    -8.776    -9.237    -0.461     (0)  
   Zn(OH)4-2       8.803e-10   1.630e-10    -9.055    -9.788    -0.732     (0)  

------------------------------Saturation indices-------------------------------

  Phase               SI** log IAP   log K(298 K,   1 atm)

  CH4(g)          -24.70    -65.74  -41.05  CH4
  CO2(g)           -3.50    -21.65  -18.15  CO2
  fix_pH           -9.00     -9.00    0.00  H+
  Halite           -3.64     -2.04    1.60  NaCl
  Natron           -4.37     -5.68   -1.31  Na2CO3:10H2O
  O2(g)           -61.04     22.05   83.09  O2
  Smithsonite       1.06     -8.94  -10.00  ZnCO3
  Thermonatrite    -6.30     -5.66    0.64  Na2CO3:H2O
  Zincite           1.37     12.71   11.33  ZnO
  Zn(OH)2           0.50     12.70   12.20  Zn(OH)2
  Zn(OH)2(am)       0.23     12.70   12.47  Zn(OH)2
  Zn(OH)2(beta)     0.95     12.70   11.75  Zn(OH)2
  Zn(OH)2(epsilon)   1.17     12.70   11.53  Zn(OH)2
  Zn(OH)2(gamma)    0.97     12.70   11.73  Zn(OH)2
  Zn2(OH)3Cl        0.18     15.37   15.19  Zn2(OH)3Cl
  Zn5(OH)8Cl2       4.95     43.45   38.50  Zn5(OH)8Cl2
  ZnCl2           -14.41     -7.36    7.05  ZnCl2
  ZnCO3:1H2O        1.32     -8.94  -10.26  ZnCO3:1H2O
  Znmetal         -24.11      1.68   25.79  Zn
  ZnO(active)       1.52     12.71   11.19  ZnO

**For a gas, SI = log10(fugacity). Fugacity = pressure * phi / 1 atm.
  For ideal gases, phi = 1.

------------------
End of simulation.
------------------

-------------------------------------
Reading input data for simulation 12.
-------------------------------------

	USE SOLUTION 1
	USE SURFACE 1
	EQUILIBRIUM_PHASES 1
	CO2(g) -3.5 10
	fix_pH -9.5 NaOH 10
	END
-----------------------------------------
Beginning of batch-reaction calculations.
-----------------------------------------

Reaction step 1.

Using solution 1.	
Using surface 1.	
Using pure phase assemblage 1.	

-------------------------------Phase assemblage--------------------------------

                                                      Moles in assemblage
Phase               SI  log IAP  log K(T, P)   Initial       Final       Delta

CO2(g)           -3.50   -21.65    -18.15    1.000e+01   9.965e+00  -3.477e-02
fix_pH           -9.50    -9.50      0.00
	 NaOH               is reactant       1.000e+01   9.951e+00  -4.893e-02

------------------------------Surface composition------------------------------

Bacta         
	 -4.389e-04  Surface charge, eq
Bacta         
	  4.400e-04  moles
	                                   Mole                     Log
	Species               Moles    Fraction    Molality    Molality

	BactaO-           4.394e-04       0.999   4.393e-04      -3.357
	BactaOZn+         5.512e-07       0.001   5.510e-07      -6.259
	BactaOH           2.773e-10       0.000   2.772e-10      -9.557

Bactb         
	 -5.598e-04  Surface charge, eq
Bactb         
	  5.600e-04  moles
	                                   Mole                     Log
	Species               Moles    Fraction    Molality    Molality

	BactbO-           5.599e-04       1.000   5.597e-04      -3.252
	BactbOZn+         1.113e-07       0.000   1.113e-07      -6.954
	BactbOH           1.117e-08       0.000   1.117e-08      -7.952

Bactc         
	 -2.141e-04  Surface charge, eq
Bactc         
	  2.200e-04  moles
	                                   Mole                     Log
	Species               Moles    Fraction    Molality    Molality

	BactcO-           2.168e-04       0.986   2.168e-04      -3.664
	BactcOZn+         2.720e-06       0.012   2.719e-06      -5.566
	BactcOH           4.327e-07       0.002   4.326e-07      -6.364

Bactd         
	 -2.646e-04  Surface charge, eq
Bactd         
	  3.700e-04  moles
	                                   Mole                     Log
	Species               Moles    Fraction    Molality    Molality

	BactdO-           2.646e-04       0.715   2.646e-04      -3.577
	BactdOH           1.054e-04       0.285   1.053e-04      -3.977

-----------------------------Solution composition------------------------------

	Elements           Molality       Moles

	C                 3.477e-02   3.477e-02
	Cl                1.200e-01   1.200e-01
	Na                1.689e-01   1.689e-01
	Zn                1.328e-04   1.328e-04

----------------------------Description of solution----------------------------

                                       pH  =   9.500      Charge balance
                                       pe  =  -3.989      Adjusted to redox equilibrium
                        Activity of water  =   0.995
                 Ionic strength (mol/kgw)  =   1.678e-01
                       Mass of water (kg)  =   1.000e+00
                 Total alkalinity (eq/kg)  =   4.858e-02
                       Total CO2 (mol/kg)  =   3.477e-02
                         Temperature (°C)  =  25.00
                  Electrical balance (eq)  =   5.986e-04
 Percent error, 100*(Cat-|An|)/(Cat+|An|)  =   0.19
                               Iterations  =  17
                                  Total H  = 1.110629e+02
                                  Total O  = 5.562531e+01

----------------------------Distribution of species----------------------------

                                               Log       Log       Log    mole V
   Species          Molality    Activity  Molality  Activity     Gamma   cm³/mol

   OH-             4.392e-05   3.167e-05    -4.357    -4.499    -0.142     (0)  
   H+              4.193e-10   3.162e-10    -9.377    -9.500    -0.123      0.00
   H2O             5.551e+01   9.946e-01     1.744    -0.002     0.000     18.07
C(4)          3.477e-02
   HCO3-           1.998e-02   1.512e-02    -1.699    -1.820    -0.121     (0)  
   CO3-2           6.931e-03   2.242e-03    -2.159    -2.649    -0.490     (0)  
   NaCO3-          6.704e-03   5.074e-03    -2.174    -2.295    -0.121     (0)  
   NaHCO3          1.034e-03   1.034e-03    -2.986    -2.986     0.000     (0)  
   ZnCO3           1.021e-04   1.021e-04    -3.991    -3.991     0.000     (0)  
   H2CO3           1.076e-05   1.076e-05    -4.968    -4.968     0.000     (0)  
   ZnHCO3+         6.123e-07   3.785e-07    -6.213    -6.422    -0.209     (0)  
Cl            1.200e-01
   Cl-             1.200e-01   9.047e-02    -0.921    -1.043    -0.123     (0)  
   ZnOHCl          7.457e-06   7.457e-06    -5.127    -5.127     0.000     (0)  
   ZnCl+           2.459e-07   1.798e-07    -6.609    -6.745    -0.136     (0)  
   ZnCl2           2.579e-08   2.579e-08    -7.589    -7.589     0.000     (0)  
   ZnCl3-          2.534e-09   1.853e-09    -8.596    -8.732    -0.136     (0)  
   ZnCl4-2         2.648e-10   8.383e-11    -9.577   -10.077    -0.500     (0)  
H(0)          1.297e-14
   H2              6.487e-15   6.743e-15   -14.188   -14.171     0.017     (0)  
Na            1.689e-01
   Na+             1.611e-01   1.215e-01    -0.793    -0.915    -0.123     (0)  
   NaCO3-          6.704e-03   5.074e-03    -2.174    -2.295    -0.121     (0)  
   NaHCO3          1.034e-03   1.034e-03    -2.986    -2.986     0.000     (0)  
O(0)          0.000e+00
   O2              0.000e+00   0.000e+00   -63.974   -63.957     0.017     (0)  
Zn            1.328e-04
   ZnCO3           1.021e-04   1.021e-04    -3.991    -3.991     0.000     (0)  
   Zn(OH)2         1.258e-05   1.258e-05    -4.900    -4.900     0.000     (0)  
   ZnOHCl          7.457e-06   7.457e-06    -5.127    -5.127     0.000     (0)  
   ZnOH+           4.055e-06   2.506e-06    -5.392    -5.601    -0.209     (0)  
   Zn(OH)3-        3.231e-06   1.997e-06    -5.491    -5.700    -0.209     (0)  
   Zn+2            2.446e-06   7.914e-07    -5.611    -6.102    -0.490     (0)  
   ZnHCO3+         6.123e-07   3.785e-07    -6.213    -6.422    -0.209     (0)  
   ZnCl+           2.459e-07   1.798e-07    -6.609    -6.745    -0.136     (0)  
   ZnCl2           2.579e-08   2.579e-08    -7.589    -7.589     0.000     (0)  
   Zn(OH)4-2       1.725e-08   2.518e-09    -7.763    -8.599    -0.836     (0)  
   ZnCl3-          2.534e-09   1.853e-09    -8.596    -8.732    -0.136     (0)  
   ZnCl4-2         2.648e-10   8.383e-11    -9.577   -10.077    -0.500     (0)  

------------------------------Saturation indices-------------------------------

  Phase               SI** log IAP   log K(298 K,   1 atm)

  CH4(g)          -24.68    -65.73  -41.05  CH4
  CO2(g)           -3.50    -21.65  -18.15  CO2
  fix_pH           -9.50     -9.50    0.00  H+
  Halite           -3.56     -1.96    1.60  NaCl
  Natron           -3.19     -4.50   -1.31  Na2CO3:10H2O
  O2(g)           -61.05     22.04   83.09  O2
  Smithsonite       1.25     -8.75  -10.00  ZnCO3
  Thermonatrite    -5.12     -4.48    0.64  Na2CO3:H2O
  Zincite           1.56     12.90   11.33  ZnO
  Zn(OH)2           0.69     12.89   12.20  Zn(OH)2
  Zn(OH)2(am)       0.42     12.89   12.47  Zn(OH)2
  Zn(OH)2(beta)     1.14     12.89   11.75  Zn(OH)2
  Zn(OH)2(epsilon)   1.36     12.89   11.53  Zn(OH)2
  Zn(OH)2(gamma)    1.16     12.89   11.73  Zn(OH)2
  Zn2(OH)3Cl        0.06     15.25   15.19  Zn2(OH)3Cl
  Zn5(OH)8Cl2       4.89     43.39   38.50  Zn5(OH)8Cl2
  ZnCl2           -15.24     -8.19    7.05  ZnCl2
  ZnCO3:1H2O        1.51     -8.75  -10.26  ZnCO3:1H2O
  Znmetal         -23.91      1.88   25.79  Zn
  ZnO(active)       1.71     12.90   11.19  ZnO

**For a gas, SI = log10(fugacity). Fugacity = pressure * phi / 1 atm.
  For ideal gases, phi = 1.

------------------
End of simulation.
------------------

-------------------------------------
Reading input data for simulation 13.
-------------------------------------

	USE SOLUTION 1
	USE SURFACE 1
	EQUILIBRIUM_PHASES 1
	CO2(g) -3.5 10
	fix_pH -10.0 NaOH 10
	END
-----------------------------------------
Beginning of batch-reaction calculations.
-----------------------------------------

Reaction step 1.

Using solution 1.	
Using surface 1.	
Using pure phase assemblage 1.	

-------------------------------Phase assemblage--------------------------------

                                                      Moles in assemblage
Phase               SI  log IAP  log K(T, P)   Initial       Final       Delta

CO2(g)           -3.50   -21.65    -18.15    1.000e+01   9.567e+00  -4.332e-01
fix_pH          -10.00   -10.00      0.00
	 NaOH               is reactant       1.000e+01   9.215e+00  -7.845e-01

------------------------------Surface composition------------------------------

Bacta         
	 -4.399e-04  Surface charge, eq
Bacta         
	  4.400e-04  moles
	                                   Mole                     Log
	Species               Moles    Fraction    Molality    Molality

	BactaO-           4.399e-04       1.000   4.372e-04      -3.359
	BactaOZn+         5.524e-08       0.000   5.489e-08      -7.260
	BactaOH           8.778e-11       0.000   8.723e-11     -10.059

Bactb         
	 -5.600e-04  Surface charge, eq
Bactb         
	  5.600e-04  moles
	                                   Mole                     Log
	Species               Moles    Fraction    Molality    Molality

	BactbO-           5.600e-04       1.000   5.565e-04      -3.255
	BactbOZn+         1.114e-08       0.000   1.107e-08      -7.956
	BactbOH           3.533e-09       0.000   3.511e-09      -8.455

Bactc         
	 -2.193e-04  Surface charge, eq
Bactc         
	  2.200e-04  moles
	                                   Mole                     Log
	Species               Moles    Fraction    Molality    Molality

	BactcO-           2.196e-04       0.998   2.182e-04      -3.661
	BactcOZn+         2.757e-07       0.001   2.740e-07      -6.562
	BactcOH           1.385e-07       0.001   1.377e-07      -6.861

Bactd         
	 -3.286e-04  Surface charge, eq
Bactd         
	  3.700e-04  moles
	                                   Mole                     Log
	Species               Moles    Fraction    Molality    Molality

	BactdO-           3.286e-04       0.888   3.266e-04      -3.486
	BactdOH           4.137e-05       0.112   4.111e-05      -4.386

-----------------------------Solution composition------------------------------

	Elements           Molality       Moles

	C                 4.304e-01   4.332e-01
	Cl                1.192e-01   1.200e-01
	Na                8.988e-01   9.045e-01
	Zn                1.350e-04   1.359e-04

----------------------------Description of solution----------------------------

                                       pH  =  10.000      Charge balance
                                       pe  =  -4.514      Adjusted to redox equilibrium
                        Activity of water  =   0.980
                 Ionic strength (mol/kgw)  =   6.797e-01
                       Mass of water (kg)  =   1.006e+00
                 Total alkalinity (eq/kg)  =   7.792e-01
                       Total CO2 (mol/kg)  =   4.304e-01
                         Temperature (°C)  =  25.00
                  Electrical balance (eq)  =   6.690e-04
 Percent error, 100*(Cat-|An|)/(Cat+|An|)  =   0.05
                               Iterations  =  18
                                  Total H  = 1.117986e+02
                                  Total O  = 5.715767e+01

----------------------------Distribution of species----------------------------

                                               Log       Log       Log    mole V
   Species          Molality    Activity  Molality  Activity     Gamma   cm³/mol

   OH-             1.623e-04   9.871e-05    -3.790    -4.006    -0.216     (0)  
   H+              1.338e-10   1.000e-10    -9.874   -10.000    -0.126      0.00
   H2O             5.551e+01   9.803e-01     1.744    -0.009     0.000     18.07
C(4)          4.304e-01
   NaCO3-          2.776e-01   1.873e-01    -0.557    -0.727    -0.171     (0)  
   CO3-2           7.084e-02   2.210e-02    -1.150    -1.656    -0.506     (0)  
   HCO3-           6.984e-02   4.714e-02    -1.156    -1.327    -0.171     (0)  
   NaHCO3          1.207e-02   1.207e-02    -1.918    -1.918     0.000     (0)  
   ZnCO3           1.007e-04   1.007e-04    -3.997    -3.997     0.000     (0)  
   H2CO3           1.060e-05   1.060e-05    -4.975    -4.975     0.000     (0)  
   ZnHCO3+         3.109e-07   1.181e-07    -6.507    -6.928    -0.420     (0)  
Cl            1.192e-01
   Cl-             1.192e-01   8.912e-02    -0.924    -1.050    -0.126     (0)  
   ZnOHCl          2.292e-06   2.292e-06    -5.640    -5.640     0.000     (0)  
   ZnCl+           2.823e-08   1.773e-08    -7.549    -7.751    -0.202     (0)  
   ZnCl2           2.505e-09   2.505e-09    -8.601    -8.601     0.000     (0)  
   ZnCl3-          2.822e-10   1.773e-10    -9.549    -9.751    -0.202     (0)  
   ZnCl4-2         4.094e-11   7.901e-12   -10.388   -11.102    -0.714     (0)  
H(0)          1.290e-14
   H2              6.449e-15   7.542e-15   -14.190   -14.123     0.068     (0)  
Na            8.988e-01
   Na+             6.092e-01   4.553e-01    -0.215    -0.342    -0.126     (0)  
   NaCO3-          2.776e-01   1.873e-01    -0.557    -0.727    -0.171     (0)  
   NaHCO3          1.207e-02   1.207e-02    -1.918    -1.918     0.000     (0)  
O(0)          0.000e+00
   O2              0.000e+00   0.000e+00   -64.135   -64.067     0.068     (0)  
Zn            1.350e-04
   ZnCO3           1.007e-04   1.007e-04    -3.997    -3.997     0.000     (0)  
   Zn(OH)3-        1.594e-05   6.052e-06    -4.798    -5.218    -0.420     (0)  
   Zn(OH)2         1.223e-05   1.223e-05    -4.912    -4.912     0.000     (0)  
   ZnOHCl          2.292e-06   2.292e-06    -5.640    -5.640     0.000     (0)  
   ZnOH+           2.059e-06   7.820e-07    -5.686    -6.107    -0.420     (0)  
   Zn(OH)4-2       1.143e-06   2.378e-08    -5.942    -7.624    -1.682     (0)  
   ZnHCO3+         3.109e-07   1.181e-07    -6.507    -6.928    -0.420     (0)  
   Zn+2            2.539e-07   7.922e-08    -6.595    -7.101    -0.506     (0)  
   ZnCl+           2.823e-08   1.773e-08    -7.549    -7.751    -0.202     (0)  
   ZnCl2           2.505e-09   2.505e-09    -8.601    -8.601     0.000     (0)  
   ZnCl3-          2.822e-10   1.773e-10    -9.549    -9.751    -0.202     (0)  
   ZnCl4-2         4.094e-11   7.901e-12   -10.388   -11.102    -0.714     (0)  

------------------------------Saturation indices-------------------------------

  Phase               SI** log IAP   log K(298 K,   1 atm)

  CH4(g)          -24.47    -65.52  -41.05  CH4
  CO2(g)           -3.50    -21.65  -18.15  CO2
  fix_pH          -10.00    -10.00    0.00  H+
  Halite           -2.99     -1.39    1.60  NaCl
  Natron           -1.11     -2.43   -1.31  Na2CO3:10H2O
  O2(g)           -61.16     21.93   83.09  O2
  Smithsonite       1.24     -8.76  -10.00  ZnCO3
  Thermonatrite    -2.98     -2.35    0.64  Na2CO3:H2O
  Zincite           1.56     12.89   11.33  ZnO
  Zn(OH)2           0.68     12.88   12.20  Zn(OH)2
  Zn(OH)2(am)       0.41     12.88   12.47  Zn(OH)2
  Zn(OH)2(beta)     1.13     12.88   11.75  Zn(OH)2
  Zn(OH)2(epsilon)   1.35     12.88   11.53  Zn(OH)2
  Zn(OH)2(gamma)    1.15     12.88   11.73  Zn(OH)2
  Zn2(OH)3Cl       -0.47     14.72   15.19  Zn2(OH)3Cl
  Zn5(OH)8Cl2       3.82     42.32   38.50  Zn5(OH)8Cl2
  ZnCl2           -16.25     -9.20    7.05  ZnCl2
  ZnCO3:1H2O        1.49     -8.77  -10.26  ZnCO3:1H2O
  Znmetal         -23.86      1.93   25.79  Zn
  ZnO(active)       1.70     12.89   11.19  ZnO

**For a gas, SI = log10(fugacity). Fugacity = pressure * phi / 1 atm.
  For ideal gases, phi = 1.

------------------
End of simulation.
------------------

-------------------------------------
Reading input data for simulation 14.
-------------------------------------

----------------------------------
End of Run after 0.057113 Seconds.
----------------------------------

